@<TRIPOS>MOLECULE
=
 29 30 0 0 0
SMALL
GASTEIGER

@<TRIPOS>ATOM
      1  C       -127.7660   62.4290   34.9500 C.2     1  UNL1        0.0000
      2  C       -128.1900   63.7570   35.0230 C.2     1  UNL1        0.0000
      3  C       -128.2420   64.4190   36.2640 C.2     1  UNL1        0.0000
      4  C       -127.8340   63.7370   37.4330 C.2     1  UNL1        0.0000
      5  C       -127.3890   62.4090   37.3310 C.2     1  UNL1        0.0000
      6  C       -127.3580   61.7540   36.0970 C.2     1  UNL1        0.0000
      7  C       -128.7670   65.8230   36.2290 C.2     1  UNL1        0.0000
      8  O       -129.9290   66.0470   35.9240 O.2     1  UNL1        0.0000
      9  N       -127.8650   66.8430   36.5320 N.am    1  UNL1        0.0000
     10  H       -126.8890   66.6190   36.7220 H       1  UNL1        0.0000
     11  S       -128.2430   68.4350   36.7600 S.O2    1  UNL1        0.0000
     12  O       -129.0340   68.4660   37.9750 O.2     1  UNL1        0.0000
     13  O       -128.7660   68.9800   35.5280 O.2     1  UNL1        0.0000
     14  C       -126.6660   69.1780   37.1260 C.3     1  UNL1        0.0000
     15  S       -127.7540   61.6050   33.3730 S.O2    1  UNL1        0.0000
     16  O       -129.1270   61.4140   32.9590 O.2     1  UNL1        0.0000
     17  O       -126.8420   60.4880   33.4900 O.2     1  UNL1        0.0000
     18  N       -127.0120   62.7310   32.3590 N.pl3   1  UNL1        0.0000
     19  H       -127.5910   63.5560   32.2060 H       1  UNL1        0.0000
     20  C       -125.5290   59.0910   29.3190 C.3     1  UNL1        0.0000
     21  C       -125.5020   60.5270   29.7530 C.2     1  UNL1        0.0000
     22  C       -124.6830   61.4540   29.0930 C.2     1  UNL1        0.0000
     23  C       -124.6160   62.7860   29.5210 C.2     1  UNL1        0.0000
     24  C       -125.3920   63.1920   30.6130 C.2     1  UNL1        0.0000
     25  C       -126.2070   62.2730   31.2790 C.2     1  UNL1        0.0000
     26  C       -126.2510   60.9440   30.8590 C.2     1  UNL1        0.0000
     27  C       -123.7670   63.7800   28.7840 C.3     1  UNL1        0.0000
     28  O       -127.8830   64.4200   38.6210 O.2     1  UNL1        0.0000
     29  C       -128.8160   63.9860   39.6080 C.3     1  UNL1        0.0000
@<TRIPOS>BOND
     1    27    23    1
     2    22    23    1
     3    22    21    2
     4    20    21    1
     5    23    24    2
     6    21    26    1
     7    24    25    1
     8    26    25    2
     9    25    18    1
    10    19    18    1
    11    18    15    1
    12    16    15    2
    13    15    17    2
    14    15     1    1
    15     1     2    2
    16     1     6    1
    17     2     3    1
    18    13    11    2
    19     8     7    2
    20     6     5    2
    21     7     3    1
    22     7     9   am
    23     3     4    2
    24     9    10    1
    25     9    11    1
    26    11    14    1
    27    11    12    2
    28     5     4    1
    29     4    28    1
    30    28    29    1
