
     RDKit          3D

 46 47  0  0  0  0  0  0  0  0999 V2000
   -1.8003    1.4335   -0.8157 C   0  0  0  0  0  0  0  0  0  0  0  0
   -1.1615    0.1380   -1.2908 C   0  0  1  0  0  0  0  0  0  0  0  0
    0.2603   -0.0284   -0.7694 C   0  0  1  0  0  0  0  0  0  0  0  0
    0.1101   -0.9162    0.4725 C   0  0  2  0  0  0  0  0  0  0  0  0
   -1.1401   -1.6208    0.3647 O   0  0  0  0  0  0  0  0  0  0  0  0
   -1.7925   -1.1872   -0.8403 C   0  0  1  0  0  0  0  0  0  0  0  0
   -3.2480   -1.2235   -0.6704 N   0  0  0  0  0  0  0  0  0  0  0  0
   -4.0172   -1.7589   -1.6893 C   0  0  0  0  0  0  0  0  0  0  0  0
   -5.3491   -1.8098   -1.6263 C   0  0  0  0  0  0  0  0  0  0  0  0
   -6.0236   -1.2759   -0.4353 C   0  0  0  0  0  0  0  0  0  0  0  0
   -7.2443   -1.2888   -0.3391 O   0  0  0  0  0  0  0  0  0  0  0  0
   -5.2038   -0.7656    0.5266 N   0  0  0  0  0  0  0  0  0  0  0  0
   -3.8360   -0.6758    0.4649 C   0  0  0  0  0  0  0  0  0  0  0  0
   -3.2291   -0.1166    1.3757 O   0  0  0  0  0  0  0  0  0  0  0  0
    0.1562   -0.1466    1.7932 C   0  0  0  0  0  0  0  0  0  0  0  0
    1.3421    0.6301    1.8752 O   0  0  0  0  0  0  0  0  0  0  0  0
    2.6032    0.0003    2.6303 P   0  0  0  0  0  0  0  0  0  0  0  0
    2.9426   -1.4135    2.2840 O   0  0  0  0  0  0  0  0  0  0  0  0
    2.2590    0.2687    4.1669 O   0  0  0  0  0  0  0  0  0  0  0  0
    3.7947    1.0079    2.3494 O   0  0  0  0  0  0  0  0  0  0  0  0
    4.8444    0.7613    1.1795 P   0  0  0  0  0  0  0  0  0  0  0  0
    5.8889    1.8253    1.0375 O   0  0  0  0  0  0  0  0  0  0  0  0
    5.4423   -0.6912    1.4944 O   0  0  0  0  0  0  0  0  0  0  0  0
    4.0210    0.5307   -0.1635 O   0  0  0  0  0  0  0  0  0  0  0  0
    3.6567    1.7952   -1.0540 P   0  0  0  0  0  0  0  0  0  0  0  0
    2.8283    2.8438   -0.4014 O   0  0  0  0  0  0  0  0  0  0  0  0
    5.0503    2.3055   -1.6370 O   0  0  0  0  0  0  0  0  0  0  0  0
    3.0161    1.1570   -2.3751 O   0  0  0  0  0  0  0  0  0  0  0  0
    1.0562   -0.7426   -1.7309 O   0  0  0  0  0  0  0  0  0  0  0  0
   -1.1397    0.1952   -2.6587 F   0  0  0  0  0  0  0  0  0  0  0  0
   -1.2635    2.2886   -1.2428 H   0  0  0  0  0  0  0  0  0  0  0  0
   -1.7903    1.5517    0.2679 H   0  0  0  0  0  0  0  0  0  0  0  0
   -2.8315    1.5143   -1.1743 H   0  0  0  0  0  0  0  0  0  0  0  0
    0.7696    0.9174   -0.5709 H   0  0  0  0  0  0  0  0  0  0  0  0
    0.9048   -1.6711    0.4841 H   0  0  0  0  0  0  0  0  0  0  0  0
   -1.5338   -1.9511   -1.5868 H   0  0  0  0  0  0  0  0  0  0  0  0
   -3.4956   -2.1448   -2.5618 H   0  0  0  0  0  0  0  0  0  0  0  0
   -5.9670   -2.2241   -2.4114 H   0  0  0  0  0  0  0  0  0  0  0  0
   -5.6443   -0.3756    1.3447 H   0  0  0  0  0  0  0  0  0  0  0  0
   -0.6953    0.5305    1.8909 H   0  0  0  0  0  0  0  0  0  0  0  0
    0.0854   -0.8389    2.6407 H   0  0  0  0  0  0  0  0  0  0  0  0
    2.0884    1.2095    4.3564 H   0  0  0  0  0  0  0  0  0  0  0  0
    4.7562   -1.3896    1.6081 H   0  0  0  0  0  0  0  0  0  0  0  0
    5.5895    2.7603   -0.9513 H   0  0  0  0  0  0  0  0  0  0  0  0
    3.7039    0.6979   -2.8934 H   0  0  0  0  0  0  0  0  0  0  0  0
    1.2362   -0.1061   -2.4536 H   0  0  0  0  0  0  0  0  0  0  0  0
  1  2  1  0
  2  3  1  0
  3  4  1  0
  4  5  1  0
  5  6  1  0
  6  7  1  0
  7  8  1  0
  8  9  2  0
  9 10  1  0
 10 11  2  0
 10 12  1  0
 12 13  1  0
 13 14  2  0
  4 15  1  0
 15 16  1  0
 16 17  1  0
 17 18  2  0
 17 19  1  0
 17 20  1  0
 20 21  1  0
 21 22  2  0
 21 23  1  0
 21 24  1  0
 24 25  1  0
 25 26  2  0
 25 27  1  0
 25 28  1  0
  3 29  1  0
  2 30  1  6
  6  2  1  0
 13  7  1  0
  1 31  1  0
  1 32  1  0
  1 33  1  0
  3 34  1  1
  4 35  1  1
  6 36  1  6
  8 37  1  0
  9 38  1  0
 12 39  1  0
 15 40  1  0
 15 41  1  0
 19 42  1  0
 23 43  1  0
 27 44  1  0
 28 45  1  0
 29 46  1  0
M  END
$$$$
