
     RDKit          3D

 41 43  0  0  0  0  0  0  0  0999 V2000
    2.9050   31.8350   23.9950 C   0  0  0  0  0  0  0  0  0  0  0  0
    3.9310   30.9660   24.4580 O   0  0  0  0  0  0  0  0  0  0  0  0
    4.6030   30.2180   23.5280 C   0  0  0  0  0  0  0  0  0  0  0  0
    5.9970   30.3830   23.4540 C   0  0  0  0  0  0  0  0  0  0  0  0
    6.7210   29.5760   22.5650 C   0  0  0  0  0  0  0  0  0  0  0  0
    6.1240   28.6640   21.7520 N   0  0  0  0  0  0  0  0  0  0  0  0
    4.7830   28.5570   21.8180 C   0  0  0  0  0  0  0  0  0  0  0  0
    3.9910   29.2970   22.6780 C   0  0  0  0  0  0  0  0  0  0  0  0
    8.2230   29.6670   22.4710 C   0  0  0  0  0  0  0  0  0  0  0  0
    9.0570   28.3650   23.4270 S   0  0  0  0  0  0  0  0  0  0  0  0
    8.0370   27.4290   24.0140 O   0  0  0  0  0  0  0  0  0  0  0  0
    9.5620   29.4170   24.7990 C   0  0  0  0  0  0  0  0  0  0  0  0
    9.9360   28.9930   25.9860 N   0  0  0  0  0  0  0  0  0  0  0  0
   10.2240   30.1340   26.6950 C   0  0  0  0  0  0  0  0  0  0  0  0
   10.0250   31.2700   25.9170 C   0  0  0  0  0  0  0  0  0  0  0  0
    9.5990   30.7810   24.7120 N   0  0  0  0  0  0  0  0  0  0  0  0
   10.2470   32.5660   26.3880 C   0  0  0  0  0  0  0  0  0  0  0  0
   10.7010   32.7030   27.7090 C   0  0  0  0  0  0  0  0  0  0  0  0
   10.8930   31.5750   28.5150 C   0  0  0  0  0  0  0  0  0  0  0  0
   10.6610   30.2830   28.0180 C   0  0  0  0  0  0  0  0  0  0  0  0
   10.8970   34.0000   28.0980 O   0  0  0  0  0  0  0  0  0  0  0  0
   12.2180   34.3570   28.4690 C   0  0  0  0  0  0  0  0  0  0  0  0
   12.1990   35.5710   29.0730 F   0  0  0  0  0  0  0  0  0  0  0  0
   12.9330   34.5060   27.3240 F   0  0  0  0  0  0  0  0  0  0  0  0
    6.7200   31.2340   24.2510 O   0  0  0  0  0  0  0  0  0  0  0  0
    6.7250   32.5920   23.8130 C   0  0  0  0  0  0  0  0  0  0  0  0
    2.3828   32.2773   24.8562 H   0  0  0  0  0  0  0  0  0  0  0  0
    3.3498   32.6353   23.3853 H   0  0  0  0  0  0  0  0  0  0  0  0
    2.1888   31.2646   23.3853 H   0  0  0  0  0  0  0  0  0  0  0  0
    4.2879   27.8384   21.1482 H   0  0  0  0  0  0  0  0  0  0  0  0
    2.8995   29.1615   22.6911 H   0  0  0  0  0  0  0  0  0  0  0  0
    8.5172   29.5735   21.4152 H   0  0  0  0  0  0  0  0  0  0  0  0
    8.5272   30.6377   22.8897 H   0  0  0  0  0  0  0  0  0  0  0  0
    9.3500   31.3419   23.8848 H   0  0  0  0  0  0  0  0  0  0  0  0
   10.0730   33.4443   25.7491 H   0  0  0  0  0  0  0  0  0  0  0  0
   11.2309   31.7030   29.5540 H   0  0  0  0  0  0  0  0  0  0  0  0
   10.8197   29.4016   28.6568 H   0  0  0  0  0  0  0  0  0  0  0  0
   12.6430   33.5936   29.1373 H   0  0  0  0  0  0  0  0  0  0  0  0
    6.7275   33.2593   24.6875 H   0  0  0  0  0  0  0  0  0  0  0  0
    7.6238   32.7785   23.2069 H   0  0  0  0  0  0  0  0  0  0  0  0
    5.8276   32.7851   23.2069 H   0  0  0  0  0  0  0  0  0  0  0  0
  1  2  1  0
  2  3  1  0
  3  4  2  0
  4  5  1  0
  5  6  2  0
  6  7  1  0
  7  8  2  0
  5  9  1  0
  9 10  1  0
 10 11  2  0
 10 12  1  0
 12 13  2  0
 13 14  1  0
 14 15  2  0
 15 16  1  0
 15 17  1  0
 17 18  2  0
 18 19  1  0
 19 20  2  0
 18 21  1  0
 21 22  1  0
 22 23  1  0
 22 24  1  0
  4 25  1  0
 25 26  1  0
  8  3  1  0
 16 12  1  0
 20 14  1  0
  1 27  1  0
  1 28  1  0
  1 29  1  0
  7 30  1  0
  8 31  1  0
  9 32  1  0
  9 33  1  0
 16 34  1  0
 17 35  1  0
 19 36  1  0
 20 37  1  0
 22 38  1  0
 26 39  1  0
 26 40  1  0
 26 41  1  0
M  END
