
     RDKit          3D

 67 69  0  0  0  0  0  0  0  0999 V2000
   10.2220   26.1720   22.7700 C   0  0  0  0  0  0  0  0  0  0  0  0
    9.0900   27.1650   22.8770 C   0  0  0  0  0  0  0  0  0  0  0  0
    9.4410   28.6350   22.6990 C   0  0  2  0  0  0  0  0  0  0  0  0
    9.1170   28.1240   24.0620 C   0  0  1  0  0  0  0  0  0  0  0  0
    7.9120   28.8750   24.5810 C   0  0  2  0  0  0  0  0  0  0  0  0
    7.5170   29.7530   23.4570 N   0  0  0  0  0  0  0  0  0  0  0  0
    8.4420   29.6790   22.3280 C   0  0  0  0  0  0  0  0  0  0  0  0
    6.2390   30.2650   23.3820 C   0  0  0  0  0  0  0  0  0  0  0  0
    5.4200   30.0490   24.2870 O   0  0  0  0  0  0  0  0  0  0  0  0
    5.8500   31.1710   22.1820 C   0  0  2  0  0  0  0  0  0  0  0  0
    5.6830   32.6750   22.5750 C   0  0  0  0  0  0  0  0  0  0  0  0
    4.2950   32.9970   23.1600 C   0  0  0  0  0  0  0  0  0  0  0  0
    6.7520   33.0850   23.6080 C   0  0  0  0  0  0  0  0  0  0  0  0
    5.8880   33.5500   21.3180 C   0  0  0  0  0  0  0  0  0  0  0  0
    4.6100   30.5980   21.6480 N   0  0  0  0  0  0  0  0  0  0  0  0
    4.6520   29.6620   20.6160 C   0  0  0  0  0  0  0  0  0  0  0  0
    5.6940   29.4320   20.0000 O   0  0  0  0  0  0  0  0  0  0  0  0
    3.3010   28.9760   20.3070 C   0  0  0  0  0  0  0  0  0  0  0  0
    2.5480   28.7730   21.4210 F   0  0  0  0  0  0  0  0  0  0  0  0
    2.5380   29.7260   19.4570 F   0  0  0  0  0  0  0  0  0  0  0  0
    3.4600   27.7640   19.7080 F   0  0  0  0  0  0  0  0  0  0  0  0
    8.2200   29.6870   25.8740 C   0  0  0  0  0  0  0  0  0  0  0  0
    7.5080   30.5970   26.2930 O   0  0  0  0  0  0  0  0  0  0  0  0
    9.4230   29.3840   26.4780 N   0  0  0  0  0  0  0  0  0  0  0  0
    9.9440   30.1770   27.5860 C   0  0  1  0  0  0  0  0  0  0  0  0
   11.1520   29.4500   28.1930 C   0  0  0  0  0  0  0  0  0  0  0  0
   10.9890   27.9310   28.2970 C   0  0  2  0  0  0  0  0  0  0  0  0
   11.5310   27.2830   29.5760 C   0  0  0  0  0  0  0  0  0  0  0  0
   11.8880   25.8760   29.1350 C   0  0  0  0  0  0  0  0  0  0  0  0
   12.2900   26.0540   27.7740 N   0  0  0  0  0  0  0  0  0  0  0  0
   11.7910   27.2150   27.2250 C   0  0  0  0  0  0  0  0  0  0  0  0
   11.9420   27.5670   26.0680 O   0  0  0  0  0  0  0  0  0  0  0  0
   10.3030   31.5360   27.1200 C   0  0  0  0  0  0  0  0  0  0  0  0
   10.5560   32.6020   26.7330 N   0  0  0  0  0  0  0  0  0  0  0  0
    7.7780   26.6240   22.3650 C   0  0  0  0  0  0  0  0  0  0  0  0
   10.5522   25.8823   23.7785 H   0  0  0  0  0  0  0  0  0  0  0  0
    9.8770   25.2799   22.2268 H   0  0  0  0  0  0  0  0  0  0  0  0
   11.0616   26.6302   22.2268 H   0  0  0  0  0  0  0  0  0  0  0  0
   10.2639   29.0833   22.1230 H   0  0  0  0  0  0  0  0  0  0  0  0
    9.5583   27.9686   25.0575 H   0  0  0  0  0  0  0  0  0  0  0  0
    7.1056   28.1906   24.8831 H   0  0  0  0  0  0  0  0  0  0  0  0
    7.9071   29.3907   21.4111 H   0  0  0  0  0  0  0  0  0  0  0  0
    8.9206   30.6491   22.1283 H   0  0  0  0  0  0  0  0  0  0  0  0
    6.6513   31.1848   21.4285 H   0  0  0  0  0  0  0  0  0  0  0  0
    4.3483   32.9846   24.2586 H   0  0  0  0  0  0  0  0  0  0  0  0
    3.9757   33.9931   22.8196 H   0  0  0  0  0  0  0  0  0  0  0  0
    3.5698   32.2432   22.8196 H   0  0  0  0  0  0  0  0  0  0  0  0
    6.3575   32.9337   24.6236 H   0  0  0  0  0  0  0  0  0  0  0  0
    7.6521   32.4683   23.4686 H   0  0  0  0  0  0  0  0  0  0  0  0
    7.0089   34.1455   23.4686 H   0  0  0  0  0  0  0  0  0  0  0  0
    6.1291   34.5790   21.6229 H   0  0  0  0  0  0  0  0  0  0  0  0
    6.7149   33.1421   20.7181 H   0  0  0  0  0  0  0  0  0  0  0  0
    4.9660   33.5518   20.7181 H   0  0  0  0  0  0  0  0  0  0  0  0
    3.7023   30.8891   22.0381 H   0  0  0  0  0  0  0  0  0  0  0  0
    9.9666   28.5779   26.1381 H   0  0  0  0  0  0  0  0  0  0  0  0
    9.1741   30.2910   28.3634 H   0  0  0  0  0  0  0  0  0  0  0  0
   12.0307   29.6596   27.5654 H   0  0  0  0  0  0  0  0  0  0  0  0
   11.2603   29.8254   29.2213 H   0  0  0  0  0  0  0  0  0  0  0  0
    9.8963   27.8230   28.2302 H   0  0  0  0  0  0  0  0  0  0  0  0
   12.4198   27.8180   29.9418 H   0  0  0  0  0  0  0  0  0  0  0  0
   10.8090   27.3022   30.4057 H   0  0  0  0  0  0  0  0  0  0  0  0
   12.7119   25.4698   29.7401 H   0  0  0  0  0  0  0  0  0  0  0  0
   11.0581   25.1633   29.2507 H   0  0  0  0  0  0  0  0  0  0  0  0
   12.8861   25.3885   27.2615 H   0  0  0  0  0  0  0  0  0  0  0  0
    7.1338   26.3584   23.2161 H   0  0  0  0  0  0  0  0  0  0  0  0
    7.2794   27.3899   21.7528 H   0  0  0  0  0  0  0  0  0  0  0  0
    7.9642   25.7293   21.7528 H   0  0  0  0  0  0  0  0  0  0  0  0
  1  2  1  0
  2  3  1  0
  3  4  1  0
  4  5  1  0
  5  6  1  0
  6  7  1  0
  6  8  1  0
  8  9  2  0
  8 10  1  0
 10 11  1  0
 11 12  1  0
 11 13  1  0
 11 14  1  0
 10 15  1  0
 15 16  1  0
 16 17  2  0
 16 18  1  0
 18 19  1  0
 18 20  1  0
 18 21  1  0
  5 22  1  0
 22 23  2  0
 22 24  1  0
 24 25  1  0
 25 26  1  0
 26 27  1  0
 27 28  1  0
 28 29  1  0
 29 30  1  0
 30 31  1  0
 31 32  2  0
 25 33  1  0
 33 34  3  0
  2 35  1  0
  4  2  1  0
  7  3  1  0
 31 27  1  0
  1 36  1  0
  1 37  1  0
  1 38  1  0
  3 39  1  1
  4 40  1  1
  5 41  1  1
  7 42  1  0
  7 43  1  0
 10 44  1  6
 12 45  1  0
 12 46  1  0
 12 47  1  0
 13 48  1  0
 13 49  1  0
 13 50  1  0
 14 51  1  0
 14 52  1  0
 14 53  1  0
 15 54  1  0
 24 55  1  0
 25 56  1  1
 26 57  1  0
 26 58  1  0
 27 59  1  6
 28 60  1  0
 28 61  1  0
 29 62  1  0
 29 63  1  0
 30 64  1  0
 35 65  1  0
 35 66  1  0
 35 67  1  0
M  END
