
     RDKit          3D

 49 52  0  0  0  0  0  0  0  0999 V2000
   59.4410  138.8680   88.1750 C   0  0  0  0  0  0  0  0  0  0  0  0
   58.2810  139.3640   88.9020 N   0  0  0  0  0  0  0  0  0  0  0  0
   58.5260  140.6700   89.5170 C   0  0  0  0  0  0  0  0  0  0  0  0
   57.2650  141.2430   90.2190 C   0  0  0  0  0  0  0  0  0  0  0  0
   56.2930  140.2400   90.7070 N   0  0  0  0  0  0  0  0  0  0  0  0
   56.9870  139.0010   91.0800 C   0  0  0  0  0  0  0  0  0  0  0  0
   57.8160  138.3950   89.9110 C   0  0  0  0  0  0  0  0  0  0  0  0
   55.4480  140.7990   91.7670 C   0  0  0  0  0  0  0  0  0  0  0  0
   53.9480  140.6700   91.4720 C   0  0  0  0  0  0  0  0  0  0  0  0
   53.5220  139.1960   91.5070 C   0  0  0  0  0  0  0  0  0  0  0  0
   52.5950  138.9130   92.6270 N   0  0  0  0  0  0  0  0  0  0  0  0
   53.1790  138.5940   93.8880 C   0  0  0  0  0  0  0  0  0  0  0  0
   54.5290  138.1960   94.0160 C   0  0  0  0  0  0  0  0  0  0  0  0
   55.1100  137.8690   95.2480 C   0  0  0  0  0  0  0  0  0  0  0  0
   54.3530  137.9240   96.4050 C   0  0  0  0  0  0  0  0  0  0  0  0
   53.0180  138.3040   96.3210 C   0  0  0  0  0  0  0  0  0  0  0  0
   52.4300  138.6310   95.0820 C   0  0  0  0  0  0  0  0  0  0  0  0
   50.7250  139.1220   95.1580 S   0  0  0  0  0  0  0  0  0  0  0  0
   50.2710  139.1800   93.4410 C   0  0  0  0  0  0  0  0  0  0  0  0
   51.2020  139.0970   92.3840 C   0  0  0  0  0  0  0  0  0  0  0  0
   50.6700  139.1810   91.0770 C   0  0  0  0  0  0  0  0  0  0  0  0
   49.3020  139.3490   90.8380 C   0  0  0  0  0  0  0  0  0  0  0  0
   48.4090  139.4380   91.8910 C   0  0  0  0  0  0  0  0  0  0  0  0
   48.8940  139.3520   93.1900 C   0  0  0  0  0  0  0  0  0  0  0  0
   48.7230  139.4470   89.2190 Cl  0  0  0  0  0  0  0  0  0  0  0  0
   60.2092  138.5395   88.8905 H   0  0  0  0  0  0  0  0  0  0  0  0
   59.1419  138.0191   87.5426 H   0  0  0  0  0  0  0  0  0  0  0  0
   59.8482  139.6707   87.5426 H   0  0  0  0  0  0  0  0  0  0  0  0
   59.3274  140.5638   90.2630 H   0  0  0  0  0  0  0  0  0  0  0  0
   58.8090  141.3687   88.7159 H   0  0  0  0  0  0  0  0  0  0  0  0
   57.5991  141.8380   91.0817 H   0  0  0  0  0  0  0  0  0  0  0  0
   56.7345  141.8281   89.4534 H   0  0  0  0  0  0  0  0  0  0  0  0
   57.6672  139.2181   91.9168 H   0  0  0  0  0  0  0  0  0  0  0  0
   56.2192  138.2635   91.3568 H   0  0  0  0  0  0  0  0  0  0  0  0
   58.6998  137.9012   90.3410 H   0  0  0  0  0  0  0  0  0  0  0  0
   57.1403  137.7058   89.3833 H   0  0  0  0  0  0  0  0  0  0  0  0
   55.6671  140.2687   92.7055 H   0  0  0  0  0  0  0  0  0  0  0  0
   55.6773  141.8725   91.8372 H   0  0  0  0  0  0  0  0  0  0  0  0
   53.3799  141.2298   92.2296 H   0  0  0  0  0  0  0  0  0  0  0  0
   53.7444  141.0771   90.4706 H   0  0  0  0  0  0  0  0  0  0  0  0
   53.0205  138.9486   90.5597 H   0  0  0  0  0  0  0  0  0  0  0  0
   54.4251  138.5846   91.6505 H   0  0  0  0  0  0  0  0  0  0  0  0
   55.1499  138.1406   93.1097 H   0  0  0  0  0  0  0  0  0  0  0  0
   56.1672  137.5687   95.2956 H   0  0  0  0  0  0  0  0  0  0  0  0
   54.8008  137.6708   97.3773 H   0  0  0  0  0  0  0  0  0  0  0  0
   52.4104  138.3503   97.2368 H   0  0  0  0  0  0  0  0  0  0  0  0
   51.3549  139.1119   90.2190 H   0  0  0  0  0  0  0  0  0  0  0  0
   47.3338  139.5745   91.7030 H   0  0  0  0  0  0  0  0  0  0  0  0
   48.1934  139.4191   94.0354 H   0  0  0  0  0  0  0  0  0  0  0  0
  1  2  1  0
  2  3  1  0
  3  4  1  0
  4  5  1  0
  5  6  1  0
  6  7  1  0
  5  8  1  0
  8  9  1  0
  9 10  1  0
 10 11  1  0
 11 12  1  0
 12 13  2  0
 13 14  1  0
 14 15  2  0
 15 16  1  0
 16 17  2  0
 17 18  1  0
 18 19  1  0
 19 20  2  0
 20 21  1  0
 21 22  2  0
 22 23  1  0
 23 24  2  0
 22 25  1  0
  7  2  1  0
 20 11  1  0
 17 12  1  0
 24 19  1  0
  1 26  1  0
  1 27  1  0
  1 28  1  0
  3 29  1  0
  3 30  1  0
  4 31  1  0
  4 32  1  0
  6 33  1  0
  6 34  1  0
  7 35  1  0
  7 36  1  0
  8 37  1  0
  8 38  1  0
  9 39  1  0
  9 40  1  0
 10 41  1  0
 10 42  1  0
 13 43  1  0
 14 44  1  0
 15 45  1  0
 16 46  1  0
 21 47  1  0
 23 48  1  0
 24 49  1  0
M  END
