
     RDKit          3D

 49 50  0  0  0  0  0  0  0  0999 V2000
    8.5690   30.7410   27.5740 C   0  0  0  0  0  0  0  0  0  0  0  0
    7.6250   31.0900   26.6000 C   0  0  0  0  0  0  0  0  0  0  0  0
    8.0300   31.7270   25.4270 C   0  0  0  0  0  0  0  0  0  0  0  0
    9.3850   32.0070   25.2300 C   0  0  0  0  0  0  0  0  0  0  0  0
   10.3330   31.6600   26.1960 C   0  0  0  0  0  0  0  0  0  0  0  0
    9.9230   31.0300   27.3730 C   0  0  0  0  0  0  0  0  0  0  0  0
   10.9360   30.6520   28.3960 C   0  0  0  0  0  0  0  0  0  0  0  0
   11.4090   29.4520   28.5040 N   0  0  0  0  0  0  0  0  0  0  0  0
   11.4140   31.5870   29.2650 N   0  0  0  0  0  0  0  0  0  0  0  0
    7.2150   32.1190   24.4020 O   0  0  0  0  0  0  0  0  0  0  0  0
    7.8430   32.5570   23.1980 C   0  0  0  0  0  0  0  0  0  0  0  0
    7.0890   31.9650   22.0050 C   0  0  0  0  0  0  0  0  0  0  0  0
    7.5890   30.5620   21.6420 C   0  0  0  0  0  0  0  0  0  0  0  0
    6.5070   29.4870   21.7480 C   0  0  0  0  0  0  0  0  0  0  0  0
    7.0270   28.0660   21.5480 C   0  0  0  0  0  0  0  0  0  0  0  0
    7.0230   27.4190   22.8220 O   0  0  0  0  0  0  0  0  0  0  0  0
    8.2040   27.3840   23.5100 C   0  0  0  0  0  0  0  0  0  0  0  0
    8.6200   28.3030   24.4750 C   0  0  0  0  0  0  0  0  0  0  0  0
    9.8610   28.1470   25.1070 C   0  0  0  0  0  0  0  0  0  0  0  0
   10.6880   27.0700   24.7740 C   0  0  0  0  0  0  0  0  0  0  0  0
   10.2770   26.1530   23.8050 C   0  0  0  0  0  0  0  0  0  0  0  0
    9.0380   26.3110   23.1790 C   0  0  0  0  0  0  0  0  0  0  0  0
   12.0130   26.9040   25.4290 C   0  0  0  0  0  0  0  0  0  0  0  0
   12.6740   25.7920   25.4000 N   0  0  0  0  0  0  0  0  0  0  0  0
   12.5780   27.9440   26.1040 N   0  0  0  0  0  0  0  0  0  0  0  0
    8.2455   30.2392   28.4979 H   0  0  0  0  0  0  0  0  0  0  0  0
    6.5611   30.8611   26.7605 H   0  0  0  0  0  0  0  0  0  0  0  0
    9.7086   32.5059   24.3046 H   0  0  0  0  0  0  0  0  0  0  0  0
   11.3975   31.8821   26.0302 H   0  0  0  0  0  0  0  0  0  0  0  0
   12.1093   29.2377   29.2282 H   0  0  0  0  0  0  0  0  0  0  0  0
   12.1149   31.3225   29.9718 H   0  0  0  0  0  0  0  0  0  0  0  0
   11.0743   32.5581   29.2148 H   0  0  0  0  0  0  0  0  0  0  0  0
    7.8151   33.6554   23.1449 H   0  0  0  0  0  0  0  0  0  0  0  0
    8.8911   32.2237   23.1805 H   0  0  0  0  0  0  0  0  0  0  0  0
    6.0196   31.9060   22.2558 H   0  0  0  0  0  0  0  0  0  0  0  0
    7.2615   32.6197   21.1380 H   0  0  0  0  0  0  0  0  0  0  0  0
    7.9616   30.5812   20.6072 H   0  0  0  0  0  0  0  0  0  0  0  0
    8.3782   30.3014   22.3625 H   0  0  0  0  0  0  0  0  0  0  0  0
    6.0508   29.5517   22.7469 H   0  0  0  0  0  0  0  0  0  0  0  0
    5.7846   29.6797   20.9412 H   0  0  0  0  0  0  0  0  0  0  0  0
    6.3734   27.5226   20.8497 H   0  0  0  0  0  0  0  0  0  0  0  0
    8.0433   28.0831   21.1276 H   0  0  0  0  0  0  0  0  0  0  0  0
    7.9721   29.1516   24.7399 H   0  0  0  0  0  0  0  0  0  0  0  0
   10.1852   28.8735   25.8667 H   0  0  0  0  0  0  0  0  0  0  0  0
   10.9272   25.3079   23.5349 H   0  0  0  0  0  0  0  0  0  0  0  0
    8.7153   25.5846   22.4186 H   0  0  0  0  0  0  0  0  0  0  0  0
   13.5888   25.7243   25.8684 H   0  0  0  0  0  0  0  0  0  0  0  0
   13.4957   27.8263   26.5567 H   0  0  0  0  0  0  0  0  0  0  0  0
   12.0874   28.8478   26.1616 H   0  0  0  0  0  0  0  0  0  0  0  0
  1  2  2  0
  2  3  1  0
  3  4  2  0
  4  5  1  0
  5  6  2  0
  6  7  1  0
  7  8  2  3
  7  9  1  0
  3 10  1  0
 10 11  1  0
 11 12  1  0
 12 13  1  0
 13 14  1  0
 14 15  1  0
 15 16  1  0
 16 17  1  0
 17 18  2  0
 18 19  1  0
 19 20  2  0
 20 21  1  0
 21 22  2  0
 20 23  1  0
 23 24  2  3
 23 25  1  0
  6  1  1  0
 22 17  1  0
  1 26  1  0
  2 27  1  0
  4 28  1  0
  5 29  1  0
  8 30  1  0
  9 31  1  0
  9 32  1  0
 11 33  1  0
 11 34  1  0
 12 35  1  0
 12 36  1  0
 13 37  1  0
 13 38  1  0
 14 39  1  0
 14 40  1  0
 15 41  1  0
 15 42  1  0
 18 43  1  0
 19 44  1  0
 21 45  1  0
 22 46  1  0
 24 47  1  0
 25 48  1  0
 25 49  1  0
M  END
