
     RDKit          3D

 76 79  0  0  0  0  0  0  0  0999 V2000
   10.2560   26.0750   22.7800 C   0  0  0  0  0  0  0  0  0  0  0  0
    9.1550   26.4880   23.7590 C   0  0  0  0  0  0  0  0  0  0  0  0
    7.8400   25.7530   23.5160 C   0  0  0  0  0  0  0  0  0  0  0  0
    9.0070   27.9980   23.8670 C   0  0  0  0  0  0  0  0  0  0  0  0
    8.1800   28.8170   23.0880 C   0  0  0  0  0  0  0  0  0  0  0  0
    8.2690   30.1410   23.6260 C   0  0  0  0  0  0  0  0  0  0  0  0
    9.1490   30.1120   24.7010 C   0  0  0  0  0  0  0  0  0  0  0  0
    9.6620   28.8220   24.7740 N   0  0  0  0  0  0  0  0  0  0  0  0
   10.7670   28.4470   25.6540 C   0  0  0  0  0  0  0  0  0  0  0  0
   10.3420   28.3480   27.1190 C   0  0  0  0  0  0  0  0  0  0  0  0
   11.5290   28.2820   28.0880 C   0  0  2  0  0  0  0  0  0  0  0  0
   11.5380   27.1250   29.1020 C   0  0  0  0  0  0  0  0  0  0  0  0
   11.7580   25.7250   28.5090 C   0  0  2  0  0  0  0  0  0  0  0  0
   12.5210   24.7790   29.4420 C   0  0  0  0  0  0  0  0  0  0  0  0
   12.5100   23.3540   28.9650 C   0  0  0  0  0  0  0  0  0  0  0  0
   12.1150   22.3820   29.5880 O   0  0  0  0  0  0  0  0  0  0  0  0
   13.0340   23.2220   27.7330 O   0  0  0  0  0  0  0  0  0  0  0  0
   12.3950   25.7950   27.2390 O   0  0  0  0  0  0  0  0  0  0  0  0
   11.6430   29.5250   28.7790 O   0  0  0  0  0  0  0  0  0  0  0  0
    9.5670   31.2140   25.5760 C   0  0  0  0  0  0  0  0  0  0  0  0
    9.1770   31.2350   26.9220 C   0  0  0  0  0  0  0  0  0  0  0  0
    9.5980   32.2690   27.7610 C   0  0  0  0  0  0  0  0  0  0  0  0
   10.4110   33.2740   27.2530 C   0  0  0  0  0  0  0  0  0  0  0  0
   10.8130   33.2660   25.9220 C   0  0  0  0  0  0  0  0  0  0  0  0
   10.3950   32.2330   25.0830 C   0  0  0  0  0  0  0  0  0  0  0  0
   10.8120   34.2690   28.0560 F   0  0  0  0  0  0  0  0  0  0  0  0
    7.6140   31.3580   23.1620 C   0  0  0  0  0  0  0  0  0  0  0  0
    6.4100   31.7680   23.7450 C   0  0  0  0  0  0  0  0  0  0  0  0
    5.7980   32.9530   23.3360 C   0  0  0  0  0  0  0  0  0  0  0  0
    6.3850   33.7350   22.3410 C   0  0  0  0  0  0  0  0  0  0  0  0
    7.5850   33.3330   21.7550 C   0  0  0  0  0  0  0  0  0  0  0  0
    8.2000   32.1490   22.1660 C   0  0  0  0  0  0  0  0  0  0  0  0
    7.3750   28.3600   21.9390 C   0  0  0  0  0  0  0  0  0  0  0  0
    7.8460   27.6020   21.0990 O   0  0  0  0  0  0  0  0  0  0  0  0
    6.0880   28.8630   21.9420 N   0  0  0  0  0  0  0  0  0  0  0  0
    5.0730   28.6650   20.9860 C   0  0  0  0  0  0  0  0  0  0  0  0
    3.7740   29.0370   21.3550 C   0  0  0  0  0  0  0  0  0  0  0  0
    2.7060   28.8760   20.4660 C   0  0  0  0  0  0  0  0  0  0  0  0
    2.9310   28.3410   19.2010 C   0  0  0  0  0  0  0  0  0  0  0  0
    4.2200   27.9690   18.8260 C   0  0  0  0  0  0  0  0  0  0  0  0
    5.2870   28.1310   19.7150 C   0  0  0  0  0  0  0  0  0  0  0  0
   11.1411   25.7430   23.3424 H   0  0  0  0  0  0  0  0  0  0  0  0
    9.8938   25.2516   22.1469 H   0  0  0  0  0  0  0  0  0  0  0  0
   10.5246   26.9335   22.1469 H   0  0  0  0  0  0  0  0  0  0  0  0
    9.4829   26.1579   24.7558 H   0  0  0  0  0  0  0  0  0  0  0  0
    7.3799   25.4958   24.4815 H   0  0  0  0  0  0  0  0  0  0  0  0
    7.1579   26.4007   22.9457 H   0  0  0  0  0  0  0  0  0  0  0  0
    8.0343   24.8327   22.9457 H   0  0  0  0  0  0  0  0  0  0  0  0
   11.1572   27.4698   25.3332 H   0  0  0  0  0  0  0  0  0  0  0  0
   11.5334   29.2327   25.5810 H   0  0  0  0  0  0  0  0  0  0  0  0
    9.7359   29.2316   27.3679 H   0  0  0  0  0  0  0  0  0  0  0  0
    9.7741   27.4128   27.2327 H   0  0  0  0  0  0  0  0  0  0  0  0
   12.3964   28.0775   27.4432 H   0  0  0  0  0  0  0  0  0  0  0  0
   12.3433   27.3161   29.8265 H   0  0  0  0  0  0  0  0  0  0  0  0
   10.5329   27.1083   29.5487 H   0  0  0  0  0  0  0  0  0  0  0  0
   10.7534   25.2955   28.3811 H   0  0  0  0  0  0  0  0  0  0  0  0
   13.5651   25.1187   29.5093 H   0  0  0  0  0  0  0  0  0  0  0  0
   12.0190   24.8039   30.4205 H   0  0  0  0  0  0  0  0  0  0  0  0
   13.0825   22.3288   27.3088 H   0  0  0  0  0  0  0  0  0  0  0  0
   13.3711   25.9023   27.3649 H   0  0  0  0  0  0  0  0  0  0  0  0
   11.6281   29.3623   29.7554 H   0  0  0  0  0  0  0  0  0  0  0  0
    8.5366   30.4337   27.3192 H   0  0  0  0  0  0  0  0  0  0  0  0
    9.2880   32.2874   28.8163 H   0  0  0  0  0  0  0  0  0  0  0  0
   11.4564   34.0690   25.5332 H   0  0  0  0  0  0  0  0  0  0  0  0
   10.7159   32.2176   24.0310 H   0  0  0  0  0  0  0  0  0  0  0  0
    5.9440   31.1533   24.5292 H   0  0  0  0  0  0  0  0  0  0  0  0
    4.8519   33.2710   23.7984 H   0  0  0  0  0  0  0  0  0  0  0  0
    5.9013   34.6688   22.0186 H   0  0  0  0  0  0  0  0  0  0  0  0
    8.0468   33.9487   20.9691 H   0  0  0  0  0  0  0  0  0  0  0  0
    9.1488   31.8361   21.7056 H   0  0  0  0  0  0  0  0  0  0  0  0
    5.8395   29.4581   22.7451 H   0  0  0  0  0  0  0  0  0  0  0  0
    3.5918   29.4600   22.3539 H   0  0  0  0  0  0  0  0  0  0  0  0
    1.6899   29.1718   20.7663 H   0  0  0  0  0  0  0  0  0  0  0  0
    2.0936   28.2123   18.4995 H   0  0  0  0  0  0  0  0  0  0  0  0
    4.3992   27.5461   17.8265 H   0  0  0  0  0  0  0  0  0  0  0  0
    6.3018   27.8355   19.4103 H   0  0  0  0  0  0  0  0  0  0  0  0
  1  2  1  0
  2  3  1  0
  2  4  1  0
  4  5  2  0
  5  6  1  0
  6  7  2  0
  7  8  1  0
  8  9  1  0
  9 10  1  0
 10 11  1  0
 11 12  1  0
 12 13  1  0
 13 14  1  0
 14 15  1  0
 15 16  2  0
 15 17  1  0
 13 18  1  0
 11 19  1  0
  7 20  1  0
 20 21  2  0
 21 22  1  0
 22 23  2  0
 23 24  1  0
 24 25  2  0
 23 26  1  0
  6 27  1  0
 27 28  2  0
 28 29  1  0
 29 30  2  0
 30 31  1  0
 31 32  2  0
  5 33  1  0
 33 34  2  0
 33 35  1  0
 35 36  1  0
 36 37  2  0
 37 38  1  0
 38 39  2  0
 39 40  1  0
 40 41  2  0
  8  4  1  0
 25 20  1  0
 32 27  1  0
 41 36  1  0
  1 42  1  0
  1 43  1  0
  1 44  1  0
  2 45  1  0
  3 46  1  0
  3 47  1  0
  3 48  1  0
  9 49  1  0
  9 50  1  0
 10 51  1  0
 10 52  1  0
 11 53  1  6
 12 54  1  0
 12 55  1  0
 13 56  1  6
 14 57  1  0
 14 58  1  0
 17 59  1  0
 18 60  1  0
 19 61  1  0
 21 62  1  0
 22 63  1  0
 24 64  1  0
 25 65  1  0
 28 66  1  0
 29 67  1  0
 30 68  1  0
 31 69  1  0
 32 70  1  0
 35 71  1  0
 37 72  1  0
 38 73  1  0
 39 74  1  0
 40 75  1  0
 41 76  1  0
M  END
