
     RDKit          3D

 60 61  0  0  0  0  0  0  0  0999 V2000
    8.6530   31.0430   28.1500 C   0  0  0  0  0  0  0  0  0  0  0  0
   10.0950   31.2480   27.7060 C   0  0  0  0  0  0  0  0  0  0  0  0
   10.2110   30.3410   26.4770 C   0  0  2  0  0  0  0  0  0  0  0  0
    8.8580   30.3470   25.9080 N   0  0  0  0  0  0  0  0  0  0  0  0
    7.9030   30.9420   26.8310 C   0  0  0  0  0  0  0  0  0  0  0  0
    8.6730   30.0270   24.5810 C   0  0  0  0  0  0  0  0  0  0  0  0
    9.6360   29.6470   23.9020 O   0  0  0  0  0  0  0  0  0  0  0  0
    7.3030   30.2290   23.8830 C   0  0  2  0  0  0  0  0  0  0  0  0
    6.6660   28.8350   23.6820 C   0  0  0  0  0  0  0  0  0  0  0  0
    6.6630   28.3780   22.2170 C   0  0  0  0  0  0  0  0  0  0  0  0
    7.7400   27.3160   21.9680 C   0  0  0  0  0  0  0  0  0  0  0  0
    8.1070   26.5150   23.2190 C   0  0  0  0  0  0  0  0  0  0  0  0
    9.5160   26.6230   23.5750 N   0  0  0  0  0  0  0  0  0  0  0  0
    7.3410   30.9700   22.5980 N   0  0  0  0  0  0  0  0  0  0  0  0
    7.0200   32.4280   22.6620 C   0  0  1  0  0  0  0  0  0  0  0  0
    5.6340   32.7210   23.2720 C   0  0  0  0  0  0  0  0  0  0  0  0
    4.5040   32.7830   22.2330 C   0  0  0  0  0  0  0  0  0  0  0  0
    3.8980   31.4530   21.8690 C   0  0  0  0  0  0  0  0  0  0  0  0
    3.4440   30.5790   22.8670 C   0  0  0  0  0  0  0  0  0  0  0  0
    2.8920   29.3430   22.5270 C   0  0  0  0  0  0  0  0  0  0  0  0
    2.7830   28.9700   21.1890 C   0  0  0  0  0  0  0  0  0  0  0  0
    3.2260   29.8320   20.1900 C   0  0  0  0  0  0  0  0  0  0  0  0
    3.7800   31.0680   20.5270 C   0  0  0  0  0  0  0  0  0  0  0  0
    8.1760   33.2080   23.2920 C   0  0  0  0  0  0  0  0  0  0  0  0
    9.3170   33.2600   22.8530 O   0  0  0  0  0  0  0  0  0  0  0  0
    7.8710   33.7240   24.4980 O   0  0  0  0  0  0  0  0  0  0  0  0
   10.7790   28.9760   26.8870 C   0  0  0  0  0  0  0  0  0  0  0  0
   10.9090   28.5910   28.0440 O   0  0  0  0  0  0  0  0  0  0  0  0
   11.1400   28.1440   25.8860 O   0  0  0  0  0  0  0  0  0  0  0  0
    8.5472   30.1189   28.7373 H   0  0  0  0  0  0  0  0  0  0  0  0
    8.2803   31.8473   28.8013 H   0  0  0  0  0  0  0  0  0  0  0  0
   10.2810   32.2991   27.4403 H   0  0  0  0  0  0  0  0  0  0  0  0
   10.8277   31.0092   28.4909 H   0  0  0  0  0  0  0  0  0  0  0  0
   10.9210   30.6732   25.7053 H   0  0  0  0  0  0  0  0  0  0  0  0
    7.5957   31.9389   26.4821 H   0  0  0  0  0  0  0  0  0  0  0  0
    6.9829   30.3457   26.9198 H   0  0  0  0  0  0  0  0  0  0  0  0
    6.7025   30.8727   24.5427 H   0  0  0  0  0  0  0  0  0  0  0  0
    7.2327   28.1026   24.2757 H   0  0  0  0  0  0  0  0  0  0  0  0
    5.6168   28.9050   24.0050 H   0  0  0  0  0  0  0  0  0  0  0  0
    5.6774   27.9537   21.9750 H   0  0  0  0  0  0  0  0  0  0  0  0
    6.8765   29.2483   21.5791 H   0  0  0  0  0  0  0  0  0  0  0  0
    7.3700   26.6173   21.2032 H   0  0  0  0  0  0  0  0  0  0  0  0
    8.6483   27.8455   21.6444 H   0  0  0  0  0  0  0  0  0  0  0  0
    7.5039   26.8854   24.0611 H   0  0  0  0  0  0  0  0  0  0  0  0
    7.9044   25.4560   23.0011 H   0  0  0  0  0  0  0  0  0  0  0  0
    9.6114   26.6303   24.6005 H   0  0  0  0  0  0  0  0  0  0  0  0
   10.0305   25.8190   23.1880 H   0  0  0  0  0  0  0  0  0  0  0  0
    8.2901   30.8749   22.2094 H   0  0  0  0  0  0  0  0  0  0  0  0
    6.9234   32.8002   21.6314 H   0  0  0  0  0  0  0  0  0  0  0  0
    5.3977   31.9267   23.9954 H   0  0  0  0  0  0  0  0  0  0  0  0
    5.6928   33.7131   23.7434 H   0  0  0  0  0  0  0  0  0  0  0  0
    3.7051   33.4228   22.6360 H   0  0  0  0  0  0  0  0  0  0  0  0
    4.9566   33.1764   21.3108 H   0  0  0  0  0  0  0  0  0  0  0  0
    3.5234   30.8694   23.9250 H   0  0  0  0  0  0  0  0  0  0  0  0
    2.5423   28.6620   23.3169 H   0  0  0  0  0  0  0  0  0  0  0  0
    2.3475   27.9957   20.9225 H   0  0  0  0  0  0  0  0  0  0  0  0
    3.1394   29.5387   19.1334 H   0  0  0  0  0  0  0  0  0  0  0  0
    4.1268   31.7453   19.7326 H   0  0  0  0  0  0  0  0  0  0  0  0
    8.5462   34.2485   24.9971 H   0  0  0  0  0  0  0  0  0  0  0  0
   11.5124   27.2508   26.0948 H   0  0  0  0  0  0  0  0  0  0  0  0
  1  2  1  0
  2  3  1  0
  3  4  1  0
  4  5  1  0
  4  6  1  0
  6  7  2  0
  6  8  1  0
  8  9  1  0
  9 10  1  0
 10 11  1  0
 11 12  1  0
 12 13  1  0
  8 14  1  0
 14 15  1  0
 15 16  1  0
 16 17  1  0
 17 18  1  0
 18 19  2  0
 19 20  1  0
 20 21  2  0
 21 22  1  0
 22 23  2  0
 15 24  1  0
 24 25  2  0
 24 26  1  0
  3 27  1  0
 27 28  2  0
 27 29  1  0
  5  1  1  0
 23 18  1  0
  1 30  1  0
  1 31  1  0
  2 32  1  0
  2 33  1  0
  3 34  1  6
  5 35  1  0
  5 36  1  0
  8 37  1  1
  9 38  1  0
  9 39  1  0
 10 40  1  0
 10 41  1  0
 11 42  1  0
 11 43  1  0
 12 44  1  0
 12 45  1  0
 13 46  1  0
 13 47  1  0
 14 48  1  0
 15 49  1  6
 16 50  1  0
 16 51  1  0
 17 52  1  0
 17 53  1  0
 19 54  1  0
 20 55  1  0
 21 56  1  0
 22 57  1  0
 23 58  1  0
 26 59  1  0
 29 60  1  0
M  END
