
     RDKit          3D

 65 67  0  0  0  0  0  0  0  0999 V2000
   11.9260   25.7010   29.3300 C   0  0  0  0  0  0  0  0  0  0  0  0
   11.8150   27.2100   29.1780 C   0  0  0  0  0  0  0  0  0  0  0  0
   11.1760   27.6400   27.8490 C   0  0  2  0  0  0  0  0  0  0  0  0
   12.2010   28.1180   26.8240 C   0  0  0  0  0  0  0  0  0  0  0  0
   10.1700   28.7500   28.0910 C   0  0  0  0  0  0  0  0  0  0  0  0
    9.1390   28.6380   28.7380 O   0  0  0  0  0  0  0  0  0  0  0  0
   10.5910   29.8940   27.4800 O   0  0  0  0  0  0  0  0  0  0  0  0
    9.9690   31.1290   27.9130 C   0  0  1  0  0  0  0  0  0  0  0  0
   10.9420   31.8200   28.8870 C   0  0  0  0  0  0  0  0  0  0  0  0
   10.9730   33.3430   28.7680 C   0  0  2  0  0  0  0  0  0  0  0  0
   11.1940   33.7150   27.3290 C   0  0  0  0  0  0  0  0  0  0  0  0
   10.5480   33.0720   26.3410 C   0  0  0  0  0  0  0  0  0  0  0  0
    9.5380   31.9790   26.6700 C   0  0  1  0  0  0  0  0  0  0  0  0
    9.1520   31.1090   25.4240 C   0  0  2  0  0  0  0  0  0  0  0  0
    8.8800   31.9880   24.1690 C   0  0  2  0  0  0  0  0  0  0  0  0
    9.9820   32.9940   23.9680 C   0  0  0  0  0  0  0  0  0  0  0  0
   10.7370   33.4690   24.9640 C   0  0  0  0  0  0  0  0  0  0  0  0
    7.5350   32.7210   24.1800 C   0  0  0  0  0  0  0  0  0  0  0  0
    7.9930   30.1280   25.7430 C   0  0  0  0  0  0  0  0  0  0  0  0
    8.0480   28.8400   24.9140 C   0  0  0  0  0  0  0  0  0  0  0  0
    6.8850   28.6950   23.9210 C   0  0  2  0  0  0  0  0  0  0  0  0
    7.2170   29.2220   22.5260 C   0  0  0  0  0  0  0  0  0  0  0  0
    5.9800   29.1980   21.6270 C   0  0  2  0  0  0  0  0  0  0  0  0
    4.6920   28.9150   22.3810 C   0  0  0  0  0  0  0  0  0  0  0  0
    4.6740   29.6270   23.6990 C   0  0  0  0  0  0  0  0  0  0  0  0
    3.7100   30.2730   24.0900 O   0  0  0  0  0  0  0  0  0  0  0  0
    5.7900   29.4730   24.4550 O   0  0  0  0  0  0  0  0  0  0  0  0
    6.1690   28.1790   20.6440 O   0  0  0  0  0  0  0  0  0  0  0  0
   12.0660   33.9230   29.6680 C   0  0  0  0  0  0  0  0  0  0  0  0
   11.9452   25.4405   30.3985 H   0  0  0  0  0  0  0  0  0  0  0  0
   11.0608   25.2196   28.8507 H   0  0  0  0  0  0  0  0  0  0  0  0
   12.8523   25.3513   28.8507 H   0  0  0  0  0  0  0  0  0  0  0  0
   11.2011   27.6001   30.0032 H   0  0  0  0  0  0  0  0  0  0  0  0
   12.8372   27.6159   29.1951 H   0  0  0  0  0  0  0  0  0  0  0  0
   10.6809   26.7482   27.4372 H   0  0  0  0  0  0  0  0  0  0  0  0
   13.0784   28.5272   27.3462 H   0  0  0  0  0  0  0  0  0  0  0  0
   12.5112   27.2717   26.1935 H   0  0  0  0  0  0  0  0  0  0  0  0
   11.7520   28.8996   26.1935 H   0  0  0  0  0  0  0  0  0  0  0  0
    9.0306   30.9631   28.4625 H   0  0  0  0  0  0  0  0  0  0  0  0
   10.6444   31.5604   29.9137 H   0  0  0  0  0  0  0  0  0  0  0  0
   11.9506   31.4629   28.6318 H   0  0  0  0  0  0  0  0  0  0  0  0
   10.0133   33.7653   29.1006 H   0  0  0  0  0  0  0  0  0  0  0  0
   11.8948   34.5256   27.0804 H   0  0  0  0  0  0  0  0  0  0  0  0
    8.6086   32.4902   26.9615 H   0  0  0  0  0  0  0  0  0  0  0  0
   10.0208   30.4821   25.1748 H   0  0  0  0  0  0  0  0  0  0  0  0
    8.8448   31.2733   23.3336 H   0  0  0  0  0  0  0  0  0  0  0  0
   10.1762   33.3573   22.9481 H   0  0  0  0  0  0  0  0  0  0  0  0
   11.5330   34.1900   24.7263 H   0  0  0  0  0  0  0  0  0  0  0  0
    7.2196   32.8929   25.2197 H   0  0  0  0  0  0  0  0  0  0  0  0
    7.6396   33.6869   23.6641 H   0  0  0  0  0  0  0  0  0  0  0  0
    6.7800   32.1096   23.6641 H   0  0  0  0  0  0  0  0  0  0  0  0
    8.0445   29.8605   26.8087 H   0  0  0  0  0  0  0  0  0  0  0  0
    7.0524   30.6396   25.4909 H   0  0  0  0  0  0  0  0  0  0  0  0
    8.9911   28.8313   24.3480 H   0  0  0  0  0  0  0  0  0  0  0  0
    7.9747   27.9997   25.6201 H   0  0  0  0  0  0  0  0  0  0  0  0
    6.6480   27.6267   23.8087 H   0  0  0  0  0  0  0  0  0  0  0  0
    7.5824   30.2562   22.6089 H   0  0  0  0  0  0  0  0  0  0  0  0
    7.9889   28.5773   22.0804 H   0  0  0  0  0  0  0  0  0  0  0  0
    5.8746   30.1972   21.1794 H   0  0  0  0  0  0  0  0  0  0  0  0
    3.8388   29.2560   21.7762 H   0  0  0  0  0  0  0  0  0  0  0  0
    4.6249   27.8328   22.5663 H   0  0  0  0  0  0  0  0  0  0  0  0
    6.3298   27.3120   21.0941 H   0  0  0  0  0  0  0  0  0  0  0  0
   11.7891   33.7760   30.7224 H   0  0  0  0  0  0  0  0  0  0  0  0
   13.0184   33.4116   29.4643 H   0  0  0  0  0  0  0  0  0  0  0  0
   12.1764   34.9983   29.4643 H   0  0  0  0  0  0  0  0  0  0  0  0
  1  2  1  0
  2  3  1  0
  3  4  1  0
  3  5  1  0
  5  6  2  0
  5  7  1  0
  7  8  1  0
  8  9  1  0
  9 10  1  0
 10 11  1  0
 11 12  2  0
 12 13  1  0
 13 14  1  0
 14 15  1  0
 15 16  1  0
 16 17  2  0
 15 18  1  0
 14 19  1  0
 19 20  1  0
 20 21  1  0
 21 22  1  0
 22 23  1  0
 23 24  1  0
 24 25  1  0
 25 26  2  0
 25 27  1  0
 23 28  1  0
 10 29  1  0
 13  8  1  0
 17 12  1  0
 27 21  1  0
  1 30  1  0
  1 31  1  0
  1 32  1  0
  2 33  1  0
  2 34  1  0
  3 35  1  6
  4 36  1  0
  4 37  1  0
  4 38  1  0
  8 39  1  1
  9 40  1  0
  9 41  1  0
 10 42  1  1
 11 43  1  0
 13 44  1  1
 14 45  1  6
 15 46  1  6
 16 47  1  0
 17 48  1  0
 18 49  1  0
 18 50  1  0
 18 51  1  0
 19 52  1  0
 19 53  1  0
 20 54  1  0
 20 55  1  0
 21 56  1  6
 22 57  1  0
 22 58  1  0
 23 59  1  6
 24 60  1  0
 24 61  1  0
 28 62  1  0
 29 63  1  0
 29 64  1  0
 29 65  1  0
M  END
