
     RDKit          3D

 29 30  0  0  0  0  0  0  0  0999 V2000
   54.5850  139.8930   91.1910 C   0  0  0  0  0  0  0  0  0  0  0  0
   55.8620  139.3170   91.1970 C   0  0  0  0  0  0  0  0  0  0  0  0
   56.3440  138.6500   92.3280 C   0  0  0  0  0  0  0  0  0  0  0  0
   55.5120  138.5700   93.4640 C   0  0  0  0  0  0  0  0  0  0  0  0
   54.2360  139.1400   93.4720 C   0  0  0  0  0  0  0  0  0  0  0  0
   53.7780  139.8030   92.3290 C   0  0  0  0  0  0  0  0  0  0  0  0
   52.4400  140.4050   92.3260 N   0  0  0  0  0  0  0  0  0  0  0  0
   52.1800  141.2290   91.4380 O   0  0  0  0  0  0  0  0  0  0  0  0
   51.6490  140.0540   93.2120 O   0  0  0  0  0  0  0  0  0  0  0  0
   56.0350  137.7600   94.9030 Cl  0  0  0  0  0  0  0  0  0  0  0  0
   57.6240  138.0510   92.3840 N   0  0  0  0  0  0  0  0  0  0  0  0
   58.8310  138.5560   91.9480 C   0  0  0  0  0  0  0  0  0  0  0  0
   58.9900  139.6530   91.4190 O   0  0  0  0  0  0  0  0  0  0  0  0
   60.0370  137.6790   92.1460 C   0  0  0  0  0  0  0  0  0  0  0  0
   60.2200  136.8050   93.2310 C   0  0  0  0  0  0  0  0  0  0  0  0
   61.3740  136.0230   93.3360 C   0  0  0  0  0  0  0  0  0  0  0  0
   62.3620  136.1060   92.3530 C   0  0  0  0  0  0  0  0  0  0  0  0
   62.1920  136.9680   91.2740 C   0  0  0  0  0  0  0  0  0  0  0  0
   61.0420  137.7500   91.1660 C   0  0  0  0  0  0  0  0  0  0  0  0
   63.4120  137.0680   90.0650 Cl  0  0  0  0  0  0  0  0  0  0  0  0
   59.2700  136.6990   94.2130 O   0  0  0  0  0  0  0  0  0  0  0  0
   54.2186  140.4141   90.2942 H   0  0  0  0  0  0  0  0  0  0  0  0
   56.4943  139.3903   90.2999 H   0  0  0  0  0  0  0  0  0  0  0  0
   53.5997  139.0680   94.3664 H   0  0  0  0  0  0  0  0  0  0  0  0
   57.6594  137.1124   92.8068 H   0  0  0  0  0  0  0  0  0  0  0  0
   61.5034  135.3436   94.1914 H   0  0  0  0  0  0  0  0  0  0  0  0
   63.2715  135.4922   92.4312 H   0  0  0  0  0  0  0  0  0  0  0  0
   60.9208  138.4271   90.3076 H   0  0  0  0  0  0  0  0  0  0  0  0
   59.4102  136.0797   94.9726 H   0  0  0  0  0  0  0  0  0  0  0  0
  1  2  2  0
  2  3  1  0
  3  4  2  0
  4  5  1  0
  5  6  2  0
  6  7  1  0
  7  8  2  0
  7  9  1  0
  4 10  1  0
  3 11  1  0
 11 12  1  0
 12 13  2  0
 12 14  1  0
 14 15  2  0
 15 16  1  0
 16 17  2  0
 17 18  1  0
 18 19  2  0
 18 20  1  0
 15 21  1  0
  6  1  1  0
 19 14  1  0
  1 22  1  0
  2 23  1  0
  5 24  1  0
 11 25  1  0
 16 26  1  0
 17 27  1  0
 19 28  1  0
 21 29  1  0
M  CHG  2   7   1   9  -1
M  END
