
     RDKit          3D

 54 57  0  0  0  0  0  0  0  0999 V2000
   58.2260  140.7010   91.1860 C   0  0  0  0  0  0  0  0  0  0  0  0
   57.7570  139.2980   90.7200 C   0  0  2  0  0  0  0  0  0  0  0  0
   56.3220  139.3640   90.1550 C   0  0  0  0  0  0  0  0  0  0  0  0
   55.2290  139.5860   91.2250 C   0  0  1  0  0  0  0  0  0  0  0  0
   55.3480  138.6350   92.4560 C   0  0  1  0  0  0  0  0  0  0  0  0
   56.8140  138.5730   93.0130 C   0  0  2  0  0  0  0  0  0  0  0  0
   57.7630  138.2450   91.8500 C   0  0  2  0  0  0  0  0  0  0  0  0
   59.2480  138.0410   92.1350 C   0  0  0  0  0  0  0  0  0  0  0  0
   59.9280  138.1760   90.7560 C   0  0  0  0  0  0  0  0  0  0  0  0
   58.8360  138.6740   89.7790 C   0  0  2  0  0  0  0  0  0  0  0  0
   59.2860  139.5930   88.6320 C   0  0  0  0  0  0  0  0  0  0  0  0
   58.5010  139.8610   87.7100 O   0  0  0  0  0  0  0  0  0  0  0  0
   60.7070  140.1380   88.6070 C   0  0  0  0  0  0  0  0  0  0  0  0
   61.5390  139.3850   87.7360 O   0  0  0  0  0  0  0  0  0  0  0  0
   58.3060  137.5000   89.1320 O   0  0  0  0  0  0  0  0  0  0  0  0
   56.9440  137.5150   94.1250 C   0  0  0  0  0  0  0  0  0  0  0  0
   55.9110  137.6960   95.2310 C   0  0  0  0  0  0  0  0  0  0  0  0
   54.5240  137.7380   94.6450 C   0  0  0  0  0  0  0  0  0  0  0  0
   53.6010  136.8300   95.0130 C   0  0  0  0  0  0  0  0  0  0  0  0
   52.2510  136.8050   94.4170 C   0  0  0  0  0  0  0  0  0  0  0  0
   51.4160  135.9790   94.7660 O   0  0  0  0  0  0  0  0  0  0  0  0
   51.9510  137.8090   93.3790 C   0  0  0  0  0  0  0  0  0  0  0  0
   52.8680  138.7150   93.0130 C   0  0  0  0  0  0  0  0  0  0  0  0
   54.2730  138.8290   93.5940 C   0  0  2  0  0  0  0  0  0  0  0  0
   54.3360  140.1990   94.3040 C   0  0  0  0  0  0  0  0  0  0  0  0
   55.1840  140.9620   91.5720 O   0  0  0  0  0  0  0  0  0  0  0  0
   58.2381  140.7372   92.2853 H   0  0  0  0  0  0  0  0  0  0  0  0
   59.2381  140.8957   90.8016 H   0  0  0  0  0  0  0  0  0  0  0  0
   57.5345  141.4652   90.8016 H   0  0  0  0  0  0  0  0  0  0  0  0
   56.2729  140.1937   89.4345 H   0  0  0  0  0  0  0  0  0  0  0  0
   56.1187  138.3862   89.6939 H   0  0  0  0  0  0  0  0  0  0  0  0
   54.2599  139.3076   90.7852 H   0  0  0  0  0  0  0  0  0  0  0  0
   55.0964  137.6458   92.0460 H   0  0  0  0  0  0  0  0  0  0  0  0
   57.0763  139.5461   93.4538 H   0  0  0  0  0  0  0  0  0  0  0  0
   57.3158  137.2769   91.5803 H   0  0  0  0  0  0  0  0  0  0  0  0
   59.6199  138.8093   92.8288 H   0  0  0  0  0  0  0  0  0  0  0  0
   59.4534  137.0701   92.6095 H   0  0  0  0  0  0  0  0  0  0  0  0
   60.7526  138.9022   90.8076 H   0  0  0  0  0  0  0  0  0  0  0  0
   60.3531  137.2171   90.4247 H   0  0  0  0  0  0  0  0  0  0  0  0
   60.6830  141.1827   88.2635 H   0  0  0  0  0  0  0  0  0  0  0  0
   61.1206  140.0691   89.6239 H   0  0  0  0  0  0  0  0  0  0  0  0
   62.1566  138.8260   88.2710 H   0  0  0  0  0  0  0  0  0  0  0  0
   58.0123  136.8494   89.8180 H   0  0  0  0  0  0  0  0  0  0  0  0
   56.8120  136.5179   93.6796 H   0  0  0  0  0  0  0  0  0  0  0  0
   57.9399  137.6289   94.5779 H   0  0  0  0  0  0  0  0  0  0  0  0
   55.9823  136.8547   95.9361 H   0  0  0  0  0  0  0  0  0  0  0  0
   56.1082  138.6428   95.7551 H   0  0  0  0  0  0  0  0  0  0  0  0
   53.8603  136.0853   95.7799 H   0  0  0  0  0  0  0  0  0  0  0  0
   50.9613  137.8141   92.8989 H   0  0  0  0  0  0  0  0  0  0  0  0
   52.5843  139.4342   92.2305 H   0  0  0  0  0  0  0  0  0  0  0  0
   54.3291  140.0480   95.3936 H   0  0  0  0  0  0  0  0  0  0  0  0
   55.2591  140.7212   94.0121 H   0  0  0  0  0  0  0  0  0  0  0  0
   53.4647  140.8037   94.0121 H   0  0  0  0  0  0  0  0  0  0  0  0
   55.1810  141.0538   92.5577 H   0  0  0  0  0  0  0  0  0  0  0  0
  2  1  1  1
  2  3  1  0
  3  4  1  0
  4  5  1  0
  5  6  1  0
  6  7  1  0
  7  8  1  0
  8  9  1  0
  9 10  1  0
 10 11  1  0
 11 12  2  0
 11 13  1  0
 13 14  1  0
 10 15  1  6
  6 16  1  0
 16 17  1  0
 17 18  1  0
 18 19  2  0
 19 20  1  0
 20 21  2  0
 20 22  1  0
 22 23  2  0
 23 24  1  0
 24 25  1  1
  4 26  1  0
  7  2  1  0
 10  2  1  0
 24  5  1  0
 24 18  1  0
  1 27  1  0
  1 28  1  0
  1 29  1  0
  3 30  1  0
  3 31  1  0
  4 32  1  6
  5 33  1  6
  6 34  1  1
  7 35  1  6
  8 36  1  0
  8 37  1  0
  9 38  1  0
  9 39  1  0
 13 40  1  0
 13 41  1  0
 14 42  1  0
 15 43  1  0
 16 44  1  0
 16 45  1  0
 17 46  1  0
 17 47  1  0
 19 48  1  0
 22 49  1  0
 23 50  1  0
 25 51  1  0
 25 52  1  0
 25 53  1  0
 26 54  1  0
M  END
