
     RDKit          3D

 42 45  0  0  0  0  0  0  0  0999 V2000
    7.3530   32.9690   24.0040 C   0  0  0  0  0  0  0  0  0  0  0  0
    8.6150   32.3880   23.3320 C   0  0  2  0  0  0  0  0  0  0  0  0
    8.2010   31.8580   21.9510 C   0  0  0  0  0  0  0  0  0  0  0  0
    7.5500   30.4830   22.0410 C   0  0  0  0  0  0  0  0  0  0  0  0
    8.5770   29.5550   22.6610 C   0  0  2  0  0  0  0  0  0  0  0  0
    8.3640   28.0630   22.3700 C   0  0  1  0  0  0  0  0  0  0  0  0
    9.6640   27.3410   22.7220 C   0  0  0  0  0  0  0  0  0  0  0  0
    9.9970   26.2810   22.2090 O   0  0  0  0  0  0  0  0  0  0  0  0
   10.4640   28.0030   23.6130 O   0  0  0  0  0  0  0  0  0  0  0  0
    9.7090   28.6520   24.6320 C   0  0  2  0  0  0  0  0  0  0  0  0
    8.8940   29.8760   24.1470 C   0  0  1  0  0  0  0  0  0  0  0  0
    9.4570   31.3490   24.2110 C   0  0  2  0  0  0  0  0  0  0  0  0
    9.5580   31.9630   25.6320 C   0  0  0  0  0  0  0  0  0  0  0  0
   10.1410   31.1060   26.7340 C   0  0  0  0  0  0  0  0  0  0  0  0
    9.6370   29.6710   26.6830 C   0  0  2  0  0  0  0  0  0  0  0  0
   10.4840   28.9910   25.7510 O   0  0  0  0  0  0  0  0  0  0  0  0
    8.2030   29.5720   26.4410 O   0  0  0  0  0  0  0  0  0  0  0  0
    7.7670   29.9040   25.0350 O   0  0  0  0  0  0  0  0  0  0  0  0
    9.8810   28.9930   28.0330 C   0  0  0  0  0  0  0  0  0  0  0  0
    7.1330   27.4250   22.9930 C   0  0  0  0  0  0  0  0  0  0  0  0
    7.4634   32.9182   25.0973 H   0  0  0  0  0  0  0  0  0  0  0  0
    7.2237   34.0173   23.6969 H   0  0  0  0  0  0  0  0  0  0  0  0
    6.4725   32.3856   23.6969 H   0  0  0  0  0  0  0  0  0  0  0  0
    9.3507   33.1980   23.2197 H   0  0  0  0  0  0  0  0  0  0  0  0
    7.4854   32.5613   21.5002 H   0  0  0  0  0  0  0  0  0  0  0  0
    9.1081   31.7658   21.3356 H   0  0  0  0  0  0  0  0  0  0  0  0
    6.6508   30.5298   22.6729 H   0  0  0  0  0  0  0  0  0  0  0  0
    7.2417   30.1251   21.0476 H   0  0  0  0  0  0  0  0  0  0  0  0
    9.5046   29.7877   22.1174 H   0  0  0  0  0  0  0  0  0  0  0  0
    8.1323   27.9600   21.2996 H   0  0  0  0  0  0  0  0  0  0  0  0
    8.9752   27.8912   24.9365 H   0  0  0  0  0  0  0  0  0  0  0  0
   10.4706   31.2105   23.8067 H   0  0  0  0  0  0  0  0  0  0  0  0
   10.1812   32.8661   25.5550 H   0  0  0  0  0  0  0  0  0  0  0  0
    8.5138   32.1293   25.9353 H   0  0  0  0  0  0  0  0  0  0  0  0
   11.2364   31.0992   26.6338 H   0  0  0  0  0  0  0  0  0  0  0  0
    9.8262   31.5374   27.6956 H   0  0  0  0  0  0  0  0  0  0  0  0
    9.6297   29.6914   28.8448 H   0  0  0  0  0  0  0  0  0  0  0  0
    9.2493   28.0960   28.1123 H   0  0  0  0  0  0  0  0  0  0  0  0
   10.9395   28.7042   28.1123 H   0  0  0  0  0  0  0  0  0  0  0  0
    7.2134   27.4667   24.0893 H   0  0  0  0  0  0  0  0  0  0  0  0
    6.2341   27.9707   22.6703 H   0  0  0  0  0  0  0  0  0  0  0  0
    7.0606   26.3759   22.6703 H   0  0  0  0  0  0  0  0  0  0  0  0
  1  2  1  0
  2  3  1  0
  3  4  1  0
  4  5  1  0
  5  6  1  0
  6  7  1  0
  7  8  2  0
  7  9  1  0
  9 10  1  0
 10 11  1  0
 11 12  1  0
 12 13  1  0
 13 14  1  0
 14 15  1  0
 15 16  1  0
 15 17  1  0
 17 18  1  0
 15 19  1  1
  6 20  1  0
 12  2  1  0
 11  5  1  0
 16 10  1  0
 11 18  1  1
  1 21  1  0
  1 22  1  0
  1 23  1  0
  2 24  1  6
  3 25  1  0
  3 26  1  0
  4 27  1  0
  4 28  1  0
  5 29  1  1
  6 30  1  1
 10 31  1  6
 12 32  1  1
 13 33  1  0
 13 34  1  0
 14 35  1  0
 14 36  1  0
 19 37  1  0
 19 38  1  0
 19 39  1  0
 20 40  1  0
 20 41  1  0
 20 42  1  0
M  END
