
     RDKit          3D

 85 88  0  0  0  0  0  0  0  0999 V2000
   53.3790  137.9180   96.8530 C   0  0  0  0  0  0  0  0  0  0  0  0
   53.3910  139.4130   96.6940 C   0  0  0  0  0  0  0  0  0  0  0  0
   54.0860  140.0340   95.6330 C   0  0  0  0  0  0  0  0  0  0  0  0
   54.1710  141.4310   95.5390 C   0  0  0  0  0  0  0  0  0  0  0  0
   53.5260  142.2340   96.4750 C   0  0  0  0  0  0  0  0  0  0  0  0
   52.7890  141.6410   97.4960 C   0  0  0  0  0  0  0  0  0  0  0  0
   52.7170  140.2500   97.5960 C   0  0  0  0  0  0  0  0  0  0  0  0
   51.9530  139.7760   98.6260 O   0  0  0  0  0  0  0  0  0  0  0  0
   54.7570  139.2650   94.5570 C   0  0  0  0  0  0  0  0  0  0  0  0
   55.3770  138.2400   94.8160 O   0  0  0  0  0  0  0  0  0  0  0  0
   54.6800  139.8270   93.3030 N   0  0  0  0  0  0  0  0  0  0  0  0
   55.4360  139.2750   92.1640 C   0  0  1  0  0  0  0  0  0  0  0  0
   54.4660  138.6180   91.1590 C   0  0  0  0  0  0  0  0  0  0  0  0
   52.7970  139.3970   91.1270 S   0  0  0  0  0  0  0  0  0  0  0  0
   52.0210  138.4970   92.4520 C   0  0  0  0  0  0  0  0  0  0  0  0
   52.3100  137.1420   92.6440 C   0  0  0  0  0  0  0  0  0  0  0  0
   51.6950  136.4310   93.6760 C   0  0  0  0  0  0  0  0  0  0  0  0
   50.7860  137.0690   94.5170 C   0  0  0  0  0  0  0  0  0  0  0  0
   50.4860  138.4180   94.3250 C   0  0  0  0  0  0  0  0  0  0  0  0
   51.0970  139.1280   93.2900 C   0  0  0  0  0  0  0  0  0  0  0  0
   56.3050  140.4000   91.5360 C   0  0  1  0  0  0  0  0  0  0  0  0
   57.8320  140.2800   91.7740 C   0  0  0  0  0  0  0  0  0  0  0  0
   58.4870  139.2110   91.0020 N   0  0  0  0  0  0  0  0  0  0  0  0
   58.7520  138.0020   91.7940 C   0  0  0  0  0  0  0  0  0  0  0  0
   60.1790  137.9350   92.3590 C   0  0  1  0  0  0  0  0  0  0  0  0
   60.3430  136.6980   93.2590 C   0  0  0  0  0  0  0  0  0  0  0  0
   61.8130  136.4110   93.5340 C   0  0  0  0  0  0  0  0  0  0  0  0
   62.5860  136.1030   92.2520 C   0  0  0  0  0  0  0  0  0  0  0  0
   61.9220  136.6500   90.9890 C   0  0  0  0  0  0  0  0  0  0  0  0
   61.2400  138.0000   91.2330 C   0  0  1  0  0  0  0  0  0  0  0  0
   60.6530  138.5590   89.9290 C   0  0  0  0  0  0  0  0  0  0  0  0
   59.6580  139.6890   90.2260 C   0  0  1  0  0  0  0  0  0  0  0  0
   59.1790  140.3210   88.8940 C   0  0  0  0  0  0  0  0  0  0  0  0
   58.4380  141.3010   88.8490 O   0  0  0  0  0  0  0  0  0  0  0  0
   59.6770  139.6910   87.7680 N   0  0  0  0  0  0  0  0  0  0  0  0
   59.4340  140.1300   86.3850 C   0  0  0  0  0  0  0  0  0  0  0  0
   57.9510  139.9890   86.0100 C   0  0  0  0  0  0  0  0  0  0  0  0
   60.2550  139.2240   85.4480 C   0  0  0  0  0  0  0  0  0  0  0  0
   59.8970  141.5830   86.1860 C   0  0  0  0  0  0  0  0  0  0  0  0
   56.0100  140.5610   90.1420 O   0  0  0  0  0  0  0  0  0  0  0  0
   53.3770  137.6631   97.9231 H   0  0  0  0  0  0  0  0  0  0  0  0
   52.4775  137.5058   96.3761 H   0  0  0  0  0  0  0  0  0  0  0  0
   54.2737  137.4914   96.3761 H   0  0  0  0  0  0  0  0  0  0  0  0
   54.7483  141.8925   94.7243 H   0  0  0  0  0  0  0  0  0  0  0  0
   53.5982  143.3296   96.4084 H   0  0  0  0  0  0  0  0  0  0  0  0
   52.2610  142.2707   98.2272 H   0  0  0  0  0  0  0  0  0  0  0  0
   51.8544  138.8002   98.7609 H   0  0  0  0  0  0  0  0  0  0  0  0
   54.0807  140.6519   93.1570 H   0  0  0  0  0  0  0  0  0  0  0  0
   56.1220  138.4822   92.4971 H   0  0  0  0  0  0  0  0  0  0  0  0
   54.9042  138.6934   90.1529 H   0  0  0  0  0  0  0  0  0  0  0  0
   54.3286  137.5745   91.4787 H   0  0  0  0  0  0  0  0  0  0  0  0
   53.0246  136.6347   91.9792 H   0  0  0  0  0  0  0  0  0  0  0  0
   51.9283  135.3664   93.8252 H   0  0  0  0  0  0  0  0  0  0  0  0
   50.3047  136.5092   95.3325 H   0  0  0  0  0  0  0  0  0  0  0  0
   49.7682  138.9219   94.9890 H   0  0  0  0  0  0  0  0  0  0  0  0
   50.8504  140.1885   93.1332 H   0  0  0  0  0  0  0  0  0  0  0  0
   56.0145  141.3091   92.0829 H   0  0  0  0  0  0  0  0  0  0  0  0
   58.2989  141.2375   91.4999 H   0  0  0  0  0  0  0  0  0  0  0  0
   57.9646  140.0259   92.8360 H   0  0  0  0  0  0  0  0  0  0  0  0
   58.0437  137.9756   92.6352 H   0  0  0  0  0  0  0  0  0  0  0  0
   58.6329  137.1422   91.1183 H   0  0  0  0  0  0  0  0  0  0  0  0
   60.3482  138.8213   92.9881 H   0  0  0  0  0  0  0  0  0  0  0  0
   59.8273  136.8776   94.2139 H   0  0  0  0  0  0  0  0  0  0  0  0
   59.9083  135.8298   92.7421 H   0  0  0  0  0  0  0  0  0  0  0  0
   62.2624  137.2913   94.0168 H   0  0  0  0  0  0  0  0  0  0  0  0
   61.8703  135.5269   94.1859 H   0  0  0  0  0  0  0  0  0  0  0  0
   63.5895  136.5456   92.3365 H   0  0  0  0  0  0  0  0  0  0  0  0
   62.6179  135.0082   92.1505 H   0  0  0  0  0  0  0  0  0  0  0  0
   62.6896  136.7762   90.2113 H   0  0  0  0  0  0  0  0  0  0  0  0
   61.1492  135.9326   90.6756 H   0  0  0  0  0  0  0  0  0  0  0  0
   62.0156  138.6968   91.5837 H   0  0  0  0  0  0  0  0  0  0  0  0
   61.4689  138.9507   89.3038 H   0  0  0  0  0  0  0  0  0  0  0  0
   60.1249  137.7505   89.4023 H   0  0  0  0  0  0  0  0  0  0  0  0
   60.1776  140.4408   90.8381 H   0  0  0  0  0  0  0  0  0  0  0  0
   60.2603  138.8537   87.9078 H   0  0  0  0  0  0  0  0  0  0  0  0
   57.3450  139.9314   86.9262 H   0  0  0  0  0  0  0  0  0  0  0  0
   57.6380  140.8614   85.4176 H   0  0  0  0  0  0  0  0  0  0  0  0
   57.8080  139.0732   85.4176 H   0  0  0  0  0  0  0  0  0  0  0  0
   60.8740  138.5409   86.0481 H   0  0  0  0  0  0  0  0  0  0  0  0
   59.5731  138.6390   84.8134 H   0  0  0  0  0  0  0  0  0  0  0  0
   60.9042  139.8452   84.8134 H   0  0  0  0  0  0  0  0  0  0  0  0
   60.0481  142.0573   87.1669 H   0  0  0  0  0  0  0  0  0  0  0  0
   60.8428  141.5928   85.6244 H   0  0  0  0  0  0  0  0  0  0  0  0
   59.1313  142.1382   85.6244 H   0  0  0  0  0  0  0  0  0  0  0  0
   55.1456  141.0327   90.0400 H   0  0  0  0  0  0  0  0  0  0  0  0
  1  2  1  0
  2  3  2  0
  3  4  1  0
  4  5  2  0
  5  6  1  0
  6  7  2  0
  7  8  1  0
  3  9  1  0
  9 10  2  0
  9 11  1  0
 11 12  1  0
 12 13  1  0
 13 14  1  0
 14 15  1  0
 15 16  2  0
 16 17  1  0
 17 18  2  0
 18 19  1  0
 19 20  2  0
 12 21  1  0
 21 22  1  0
 22 23  1  0
 23 24  1  0
 24 25  1  0
 25 26  1  0
 26 27  1  0
 27 28  1  0
 28 29  1  0
 29 30  1  0
 30 31  1  0
 31 32  1  0
 32 33  1  0
 33 34  2  0
 33 35  1  0
 35 36  1  0
 36 37  1  0
 36 38  1  0
 36 39  1  0
 21 40  1  0
  7  2  1  0
 20 15  1  0
 32 23  1  0
 30 25  1  0
  1 41  1  0
  1 42  1  0
  1 43  1  0
  4 44  1  0
  5 45  1  0
  6 46  1  0
  8 47  1  0
 11 48  1  0
 12 49  1  1
 13 50  1  0
 13 51  1  0
 16 52  1  0
 17 53  1  0
 18 54  1  0
 19 55  1  0
 20 56  1  0
 21 57  1  1
 22 58  1  0
 22 59  1  0
 24 60  1  0
 24 61  1  0
 25 62  1  1
 26 63  1  0
 26 64  1  0
 27 65  1  0
 27 66  1  0
 28 67  1  0
 28 68  1  0
 29 69  1  0
 29 70  1  0
 30 71  1  1
 31 72  1  0
 31 73  1  0
 32 74  1  1
 35 75  1  0
 37 76  1  0
 37 77  1  0
 37 78  1  0
 38 79  1  0
 38 80  1  0
 38 81  1  0
 39 82  1  0
 39 83  1  0
 39 84  1  0
 40 85  1  0
M  END
