
     RDKit          3D

 40 42  0  0  0  0  0  0  0  0999 V2000
   59.7550  141.0530   85.6040 C   0  0  0  0  0  0  0  0  0  0  0  0
   59.8260  140.4020   86.9530 C   0  0  0  0  0  0  0  0  0  0  0  0
   59.3080  139.1160   87.1480 C   0  0  0  0  0  0  0  0  0  0  0  0
   59.4020  138.4960   88.3970 C   0  0  0  0  0  0  0  0  0  0  0  0
   60.0370  139.1450   89.4620 C   0  0  0  0  0  0  0  0  0  0  0  0
   60.5520  140.4320   89.2700 C   0  0  0  0  0  0  0  0  0  0  0  0
   60.4580  141.0500   88.0200 C   0  0  0  0  0  0  0  0  0  0  0  0
   60.1220  138.5000   90.7690 C   0  0  0  0  0  0  0  0  0  0  0  0
   61.2170  137.8350   91.2880 C   0  0  0  0  0  0  0  0  0  0  0  0
   60.7840  137.2320   92.4870 C   0  0  0  0  0  0  0  0  0  0  0  0
   59.4900  137.5110   92.7150 N   0  0  0  0  0  0  0  0  0  0  0  0
   59.1050  138.3550   91.7140 N   0  0  0  0  0  0  0  0  0  0  0  0
   57.8020  138.9460   91.7860 C   0  0  0  0  0  0  0  0  0  0  0  0
   56.8110  138.3090   92.5590 C   0  0  0  0  0  0  0  0  0  0  0  0
   55.5250  138.8470   92.6620 C   0  0  0  0  0  0  0  0  0  0  0  0
   55.2270  140.0420   92.0080 C   0  0  0  0  0  0  0  0  0  0  0  0
   56.1980  140.6930   91.2450 C   0  0  0  0  0  0  0  0  0  0  0  0
   57.4850  140.1500   91.1430 C   0  0  0  0  0  0  0  0  0  0  0  0
   53.5940  140.7120   92.1100 S   0  0  0  0  0  0  0  0  0  0  0  0
   53.6080  141.8740   92.9670 O   0  0  0  0  0  0  0  0  0  0  0  0
   53.0040  140.7290   90.7920 O   0  0  0  0  0  0  0  0  0  0  0  0
   52.7820  139.5190   92.9680 N   0  0  0  0  0  0  0  0  0  0  0  0
   61.6020  136.3630   93.4040 C   0  0  0  0  0  0  0  0  0  0  0  0
   61.1640  135.0760   93.4290 F   0  0  0  0  0  0  0  0  0  0  0  0
   61.5550  136.8060   94.6920 F   0  0  0  0  0  0  0  0  0  0  0  0
   62.9150  136.3320   93.0580 F   0  0  0  0  0  0  0  0  0  0  0  0
   59.6365  142.1397   85.7271 H   0  0  0  0  0  0  0  0  0  0  0  0
   60.6811  140.8458   85.0477 H   0  0  0  0  0  0  0  0  0  0  0  0
   58.8954  140.6511   85.0477 H   0  0  0  0  0  0  0  0  0  0  0  0
   58.8236  138.5899   86.3122 H   0  0  0  0  0  0  0  0  0  0  0  0
   58.9748  137.4930   88.5437 H   0  0  0  0  0  0  0  0  0  0  0  0
   61.0330  140.9596   90.1068 H   0  0  0  0  0  0  0  0  0  0  0  0
   60.8841  142.0535   87.8739 H   0  0  0  0  0  0  0  0  0  0  0  0
   62.2258  137.7859   90.8523 H   0  0  0  0  0  0  0  0  0  0  0  0
   57.0526  137.3757   93.0886 H   0  0  0  0  0  0  0  0  0  0  0  0
   54.7543  138.3319   93.2542 H   0  0  0  0  0  0  0  0  0  0  0  0
   55.9528  141.6307   90.7248 H   0  0  0  0  0  0  0  0  0  0  0  0
   58.2528  140.6727   90.5537 H   0  0  0  0  0  0  0  0  0  0  0  0
   52.8952  139.6853   93.9782 H   0  0  0  0  0  0  0  0  0  0  0  0
   51.7811  139.5431   92.7261 H   0  0  0  0  0  0  0  0  0  0  0  0
  1  2  1  0
  2  3  2  0
  3  4  1  0
  4  5  2  0
  5  6  1  0
  6  7  2  0
  5  8  1  0
  8  9  2  0
  9 10  1  0
 10 11  2  0
 11 12  1  0
 12 13  1  0
 13 14  2  0
 14 15  1  0
 15 16  2  0
 16 17  1  0
 17 18  2  0
 16 19  1  0
 19 20  2  0
 19 21  2  0
 19 22  1  0
 10 23  1  0
 23 24  1  0
 23 25  1  0
 23 26  1  0
  7  2  1  0
 12  8  1  0
 18 13  1  0
  1 27  1  0
  1 28  1  0
  1 29  1  0
  3 30  1  0
  4 31  1  0
  6 32  1  0
  7 33  1  0
  9 34  1  0
 14 35  1  0
 15 36  1  0
 17 37  1  0
 18 38  1  0
 22 39  1  0
 22 40  1  0
M  END
