
     RDKit          3D

 50 50  0  0  0  0  0  0  0  0999 V2000
   60.0540  141.3160   87.5400 C   0  0  0  0  0  0  0  0  0  0  0  0
   60.0140  140.3800   88.7370 C   0  0  0  0  0  0  0  0  0  0  0  0
   60.8980  140.8390   89.9090 C   0  0  0  0  0  0  0  0  0  0  0  0
   60.1250  141.5110   91.0580 C   0  0  0  0  0  0  0  0  0  0  0  0
   58.6280  141.2290   91.0630 C   0  0  0  0  0  0  0  0  0  0  0  0
   61.5750  139.7030   90.4690 O   0  0  0  0  0  0  0  0  0  0  0  0
   61.1200  138.4340   89.9730 C   0  0  2  0  0  0  0  0  0  0  0  0
   60.5280  137.7430   91.1690 C   0  0  0  0  0  0  0  0  0  0  0  0
   61.3030  137.0780   92.0460 C   0  0  0  0  0  0  0  0  0  0  0  0
   62.7840  137.0130   91.7990 C   0  0  0  0  0  0  0  0  0  0  0  0
   63.0950  136.7330   90.3190 C   0  0  2  0  0  0  0  0  0  0  0  0
   62.3030  137.6520   89.3210 C   0  0  1  0  0  0  0  0  0  0  0  0
   61.8740  136.8420   88.1690 N   0  0  0  0  0  0  0  0  0  0  0  0
   61.8300  137.3140   86.8850 C   0  0  0  0  0  0  0  0  0  0  0  0
   62.0330  138.4860   86.5860 O   0  0  0  0  0  0  0  0  0  0  0  0
   61.5040  136.2710   85.8500 C   0  0  0  0  0  0  0  0  0  0  0  0
   62.8900  135.2830   90.0080 N   0  0  0  0  0  0  0  0  0  0  0  0
   60.7730  136.3990   93.2570 C   0  0  0  0  0  0  0  0  0  0  0  0
   61.0860  135.2620   93.5720 O   0  0  0  0  0  0  0  0  0  0  0  0
   59.9050  137.1960   93.9280 O   0  0  0  0  0  0  0  0  0  0  0  0
   58.5530  136.7240   94.0040 C   0  0  0  0  0  0  0  0  0  0  0  0
   57.6110  137.7400   93.3860 C   0  0  0  0  0  0  0  0  0  0  0  0
   60.0985  142.3577   87.8905 H   0  0  0  0  0  0  0  0  0  0  0  0
   60.9435  141.0955   86.9317 H   0  0  0  0  0  0  0  0  0  0  0  0
   59.1489  141.1722   86.9317 H   0  0  0  0  0  0  0  0  0  0  0  0
   58.9747  140.3129   89.0911 H   0  0  0  0  0  0  0  0  0  0  0  0
   60.4053  139.4089   88.3996 H   0  0  0  0  0  0  0  0  0  0  0  0
   61.5875  141.5825   89.4826 H   0  0  0  0  0  0  0  0  0  0  0  0
   60.5450  141.1535   92.0097 H   0  0  0  0  0  0  0  0  0  0  0  0
   60.2381  142.5962   90.9181 H   0  0  0  0  0  0  0  0  0  0  0  0
   58.2710  141.1618   92.1013 H   0  0  0  0  0  0  0  0  0  0  0  0
   58.0997  142.0434   90.5457 H   0  0  0  0  0  0  0  0  0  0  0  0
   58.4323  140.2782   90.5457 H   0  0  0  0  0  0  0  0  0  0  0  0
   60.3684  138.5195   89.1743 H   0  0  0  0  0  0  0  0  0  0  0  0
   59.4407  137.7814   91.3309 H   0  0  0  0  0  0  0  0  0  0  0  0
   63.2368  137.9741   92.0841 H   0  0  0  0  0  0  0  0  0  0  0  0
   63.1994  136.1915   92.4012 H   0  0  0  0  0  0  0  0  0  0  0  0
   64.1549  136.9863   90.1691 H   0  0  0  0  0  0  0  0  0  0  0  0
   62.9853  138.4457   88.9825 H   0  0  0  0  0  0  0  0  0  0  0  0
   61.5913  135.8662   88.3386 H   0  0  0  0  0  0  0  0  0  0  0  0
   61.2118  135.3362   86.3508 H   0  0  0  0  0  0  0  0  0  0  0  0
   60.6737  136.6252   85.2214 H   0  0  0  0  0  0  0  0  0  0  0  0
   62.3882  136.0893   85.2214 H   0  0  0  0  0  0  0  0  0  0  0  0
   62.8147  134.7507   90.8866 H   0  0  0  0  0  0  0  0  0  0  0  0
   62.0244  135.1681   89.4617 H   0  0  0  0  0  0  0  0  0  0  0  0
   58.4689  135.7717   93.4599 H   0  0  0  0  0  0  0  0  0  0  0  0
   58.2817  136.5768   95.0598 H   0  0  0  0  0  0  0  0  0  0  0  0
   57.0961  138.2954   94.1838 H   0  0  0  0  0  0  0  0  0  0  0  0
   58.1856  138.4413   92.7631 H   0  0  0  0  0  0  0  0  0  0  0  0
   56.8683  137.2200   92.7631 H   0  0  0  0  0  0  0  0  0  0  0  0
  1  2  1  0
  2  3  1  0
  3  4  1  0
  4  5  1  0
  3  6  1  0
  6  7  1  0
  7  8  1  0
  8  9  2  0
  9 10  1  0
 10 11  1  0
 11 12  1  0
 12 13  1  0
 13 14  1  0
 14 15  2  0
 14 16  1  0
 11 17  1  0
  9 18  1  0
 18 19  2  0
 18 20  1  0
 20 21  1  0
 21 22  1  0
 12  7  1  0
  1 23  1  0
  1 24  1  0
  1 25  1  0
  2 26  1  0
  2 27  1  0
  3 28  1  0
  4 29  1  0
  4 30  1  0
  5 31  1  0
  5 32  1  0
  5 33  1  0
  7 34  1  6
  8 35  1  0
 10 36  1  0
 10 37  1  0
 11 38  1  6
 12 39  1  6
 13 40  1  0
 16 41  1  0
 16 42  1  0
 16 43  1  0
 17 44  1  0
 17 45  1  0
 21 46  1  0
 21 47  1  0
 22 48  1  0
 22 49  1  0
 22 50  1  0
M  END
