
     RDKit          3D

 29 30  0  0  0  0  0  0  0  0999 V2000
   11.1450   32.3710   28.8610 C   0  0  0  0  0  0  0  0  0  0  0  0
   10.6490   31.3220   28.0760 C   0  0  0  0  0  0  0  0  0  0  0  0
   10.3870   31.5060   26.7140 C   0  0  0  0  0  0  0  0  0  0  0  0
   10.6340   32.7740   26.1490 C   0  0  0  0  0  0  0  0  0  0  0  0
   11.1300   33.8290   26.9200 C   0  0  0  0  0  0  0  0  0  0  0  0
   11.3830   33.6210   28.2790 C   0  0  0  0  0  0  0  0  0  0  0  0
   11.9020   34.7210   29.0990 N   0  0  0  0  0  0  0  0  0  0  0  0
   12.6400   35.5520   28.5500 O   0  0  0  0  0  0  0  0  0  0  0  0
   11.5720   34.7550   30.2930 O   0  0  0  0  0  0  0  0  0  0  0  0
   10.3360   33.0810   24.4700 Cl  0  0  0  0  0  0  0  0  0  0  0  0
    9.8870   30.4800   25.8790 N   0  0  0  0  0  0  0  0  0  0  0  0
    8.5740   30.1480   25.6130 C   0  0  0  0  0  0  0  0  0  0  0  0
    7.5920   30.7170   26.0810 O   0  0  0  0  0  0  0  0  0  0  0  0
    8.3500   28.9960   24.6730 C   0  0  0  0  0  0  0  0  0  0  0  0
    7.1610   28.7640   23.9610 C   0  0  0  0  0  0  0  0  0  0  0  0
    7.0400   27.6650   23.1050 C   0  0  0  0  0  0  0  0  0  0  0  0
    8.1110   26.7840   22.9490 C   0  0  0  0  0  0  0  0  0  0  0  0
    9.2940   27.0040   23.6470 C   0  0  0  0  0  0  0  0  0  0  0  0
    9.4190   28.0980   24.5020 C   0  0  0  0  0  0  0  0  0  0  0  0
   10.6120   25.9150   23.4510 Cl  0  0  0  0  0  0  0  0  0  0  0  0
    6.0910   29.6090   24.0920 O   0  0  0  0  0  0  0  0  0  0  0  0
   11.3466   32.2126   29.9307 H   0  0  0  0  0  0  0  0  0  0  0  0
   10.4630   30.3405   28.5366 H   0  0  0  0  0  0  0  0  0  0  0  0
   11.3191   34.8114   26.4628 H   0  0  0  0  0  0  0  0  0  0  0  0
   10.5976   29.9035   25.4062 H   0  0  0  0  0  0  0  0  0  0  0  0
    6.1023   27.4952   22.5556 H   0  0  0  0  0  0  0  0  0  0  0  0
    8.0200   25.9184   22.2763 H   0  0  0  0  0  0  0  0  0  0  0  0
   10.3607   28.2601   25.0470 H   0  0  0  0  0  0  0  0  0  0  0  0
    5.2583   29.4355   23.5853 H   0  0  0  0  0  0  0  0  0  0  0  0
  1  2  2  0
  2  3  1  0
  3  4  2  0
  4  5  1  0
  5  6  2  0
  6  7  1  0
  7  8  2  0
  7  9  1  0
  4 10  1  0
  3 11  1  0
 11 12  1  0
 12 13  2  0
 12 14  1  0
 14 15  2  0
 15 16  1  0
 16 17  2  0
 17 18  1  0
 18 19  2  0
 18 20  1  0
 15 21  1  0
  6  1  1  0
 19 14  1  0
  1 22  1  0
  2 23  1  0
  5 24  1  0
 11 25  1  0
 16 26  1  0
 17 27  1  0
 19 28  1  0
 21 29  1  0
M  CHG  2   7   1   9  -1
M  END
