
     RDKit          3D

 42 45  0  0  0  0  0  0  0  0999 V2000
   52.6820  137.4890   95.9220 C   0  0  0  0  0  0  0  0  0  0  0  0
   53.6390  137.1110   94.7720 C   0  0  2  0  0  0  0  0  0  0  0  0
   55.0270  137.6650   95.1240 C   0  0  0  0  0  0  0  0  0  0  0  0
   55.1460  139.1500   94.8070 C   0  0  0  0  0  0  0  0  0  0  0  0
   54.8970  139.2980   93.3180 C   0  0  2  0  0  0  0  0  0  0  0  0
   55.4720  140.5740   92.6870 C   0  0  1  0  0  0  0  0  0  0  0  0
   55.4760  140.3700   91.1720 C   0  0  0  0  0  0  0  0  0  0  0  0
   56.2490  140.9530   90.4240 O   0  0  0  0  0  0  0  0  0  0  0  0
   54.5870  139.4350   90.7180 O   0  0  0  0  0  0  0  0  0  0  0  0
   53.3530  139.4760   91.4290 C   0  0  2  0  0  0  0  0  0  0  0  0
   53.4380  138.9770   92.8930 C   0  0  1  0  0  0  0  0  0  0  0  0
   53.1370  137.4820   93.2980 C   0  0  2  0  0  0  0  0  0  0  0  0
   51.6470  137.0580   93.2260 C   0  0  0  0  0  0  0  0  0  0  0  0
   50.8530  137.4640   92.0040 C   0  0  0  0  0  0  0  0  0  0  0  0
   51.1420  138.8950   91.5720 C   0  0  2  0  0  0  0  0  0  0  0  0
   52.3110  138.8280   90.7500 O   0  0  0  0  0  0  0  0  0  0  0  0
   51.1900  139.8350   92.6860 O   0  0  0  0  0  0  0  0  0  0  0  0
   52.4130  139.7230   93.5630 O   0  0  0  0  0  0  0  0  0  0  0  0
   50.0210  139.3900   90.6560 C   0  0  0  0  0  0  0  0  0  0  0  0
   54.8310  141.8840   93.1160 C   0  0  0  0  0  0  0  0  0  0  0  0
   53.1734  137.2949   96.8868 H   0  0  0  0  0  0  0  0  0  0  0  0
   52.4251  138.5561   95.8495 H   0  0  0  0  0  0  0  0  0  0  0  0
   51.7652  136.8854   95.8495 H   0  0  0  0  0  0  0  0  0  0  0  0
   53.6780  136.0139   94.7017 H   0  0  0  0  0  0  0  0  0  0  0  0
   55.2067  137.5158   96.1989 H   0  0  0  0  0  0  0  0  0  0  0  0
   55.7710  137.1275   94.5177 H   0  0  0  0  0  0  0  0  0  0  0  0
   54.3967  139.7204   95.3754 H   0  0  0  0  0  0  0  0  0  0  0  0
   56.1385  139.5357   95.0829 H   0  0  0  0  0  0  0  0  0  0  0  0
   55.5045  138.4991   92.8678 H   0  0  0  0  0  0  0  0  0  0  0  0
   56.4944  140.7065   93.0707 H   0  0  0  0  0  0  0  0  0  0  0  0
   53.1180  140.5494   91.4793 H   0  0  0  0  0  0  0  0  0  0  0  0
   53.7034  136.9330   92.5313 H   0  0  0  0  0  0  0  0  0  0  0  0
   51.6157  135.9601   93.2869 H   0  0  0  0  0  0  0  0  0  0  0  0
   51.1672  137.5953   94.0573 H   0  0  0  0  0  0  0  0  0  0  0  0
   51.1086  136.7867   91.1758 H   0  0  0  0  0  0  0  0  0  0  0  0
   49.7855  137.4011   92.2620 H   0  0  0  0  0  0  0  0  0  0  0  0
   49.1843  139.7594   91.2671 H   0  0  0  0  0  0  0  0  0  0  0  0
   50.3991  140.2048   90.0211 H   0  0  0  0  0  0  0  0  0  0  0  0
   49.6735  138.5616   90.0211 H   0  0  0  0  0  0  0  0  0  0  0  0
   54.8050  141.9371   94.2144 H   0  0  0  0  0  0  0  0  0  0  0  0
   55.4188  142.7262   92.7220 H   0  0  0  0  0  0  0  0  0  0  0  0
   53.8053  141.9367   92.7220 H   0  0  0  0  0  0  0  0  0  0  0  0
  1  2  1  0
  2  3  1  0
  3  4  1  0
  4  5  1  0
  5  6  1  0
  6  7  1  0
  7  8  2  0
  7  9  1  0
  9 10  1  0
 10 11  1  0
 11 12  1  0
 12 13  1  0
 13 14  1  0
 14 15  1  0
 15 16  1  0
 15 17  1  0
 17 18  1  0
 15 19  1  6
  6 20  1  0
 12  2  1  0
 11  5  1  0
 16 10  1  0
 11 18  1  1
  1 21  1  0
  1 22  1  0
  1 23  1  0
  2 24  1  6
  3 25  1  0
  3 26  1  0
  4 27  1  0
  4 28  1  0
  5 29  1  1
  6 30  1  6
 10 31  1  6
 12 32  1  1
 13 33  1  0
 13 34  1  0
 14 35  1  0
 14 36  1  0
 19 37  1  0
 19 38  1  0
 19 39  1  0
 20 40  1  0
 20 41  1  0
 20 42  1  0
M  END
