
     RDKit          3D

 39 42  0  0  0  0  0  0  0  0999 V2000
   54.6640  137.1940   95.2810 C   0  0  0  0  0  0  0  0  0  0  0  0
   54.7920  138.6840   95.4050 C   0  0  0  0  0  0  0  0  0  0  0  0
   55.9480  137.8720   94.8960 C   0  0  0  0  0  0  0  0  0  0  0  0
   56.3590  137.9410   93.5010 N   0  0  0  0  0  0  0  0  0  0  0  0
   57.7040  137.7120   93.1590 C   0  0  0  0  0  0  0  0  0  0  0  0
   58.2410  138.2110   91.9600 C   0  0  0  0  0  0  0  0  0  0  0  0
   59.5710  137.9310   91.7130 C   0  0  0  0  0  0  0  0  0  0  0  0
   60.4140  137.2430   92.4960 N   0  0  0  0  0  0  0  0  0  0  0  0
   59.8080  136.7930   93.6060 C   0  0  0  0  0  0  0  0  0  0  0  0
   58.5340  137.0030   93.9730 N   0  0  0  0  0  0  0  0  0  0  0  0
   60.5900  136.0770   94.4910 N   0  0  0  0  0  0  0  0  0  0  0  0
   59.8360  138.5140   90.5020 N   0  0  0  0  0  0  0  0  0  0  0  0
   58.6860  139.1360   90.0870 C   0  0  0  0  0  0  0  0  0  0  0  0
   57.6990  138.9720   90.9430 N   0  0  0  0  0  0  0  0  0  0  0  0
   61.1250  138.4990   89.8340 C   0  0  2  0  0  0  0  0  0  0  0  0
   60.9990  138.2460   88.3230 C   0  0  0  0  0  0  0  0  0  0  0  0
   62.2250  137.3990   87.9350 C   0  0  1  0  0  0  0  0  0  0  0  0
   62.6300  136.7870   89.2430 C   0  0  0  0  0  0  0  0  0  0  0  0
   62.0360  137.3910   90.2790 C   0  0  0  0  0  0  0  0  0  0  0  0
   61.9140  136.3700   86.8470 C   0  0  0  0  0  0  0  0  0  0  0  0
   60.6060  135.8360   87.0230 O   0  0  0  0  0  0  0  0  0  0  0  0
   54.6219  136.5685   96.1849 H   0  0  0  0  0  0  0  0  0  0  0  0
   53.9626  136.5129   94.7769 H   0  0  0  0  0  0  0  0  0  0  0  0
   54.2384  139.3424   94.7194 H   0  0  0  0  0  0  0  0  0  0  0  0
   54.6510  139.4115   96.2179 H   0  0  0  0  0  0  0  0  0  0  0  0
   57.0048  137.7643   95.1817 H   0  0  0  0  0  0  0  0  0  0  0  0
   55.6682  138.1565   92.7681 H   0  0  0  0  0  0  0  0  0  0  0  0
   60.1780  135.7073   95.3596 H   0  0  0  0  0  0  0  0  0  0  0  0
   61.5852  135.9127   94.2824 H   0  0  0  0  0  0  0  0  0  0  0  0
   58.5986  139.7048   89.1495 H   0  0  0  0  0  0  0  0  0  0  0  0
   61.5288  139.4907   90.0859 H   0  0  0  0  0  0  0  0  0  0  0  0
   60.0704  137.6991   88.1025 H   0  0  0  0  0  0  0  0  0  0  0  0
   60.9627  139.1883   87.7567 H   0  0  0  0  0  0  0  0  0  0  0  0
   63.0339  137.9875   87.4774 H   0  0  0  0  0  0  0  0  0  0  0  0
   63.3302  135.9441   89.3391 H   0  0  0  0  0  0  0  0  0  0  0  0
   62.1958  137.1097   91.3303 H   0  0  0  0  0  0  0  0  0  0  0  0
   61.9771  136.8550   85.8617 H   0  0  0  0  0  0  0  0  0  0  0  0
   62.6443  135.5502   86.9144 H   0  0  0  0  0  0  0  0  0  0  0  0
   60.4097  135.7558   87.9900 H   0  0  0  0  0  0  0  0  0  0  0  0
  1  2  1  0
  2  3  1  0
  3  4  1  0
  4  5  1  0
  5  6  2  0
  6  7  1  0
  7  8  2  0
  8  9  1  0
  9 10  2  0
  9 11  1  0
  7 12  1  0
 12 13  1  0
 13 14  2  0
 12 15  1  0
 15 16  1  0
 16 17  1  0
 17 18  1  0
 18 19  2  0
 17 20  1  0
 20 21  1  0
  3  1  1  0
 10  5  1  0
 14  6  1  0
 19 15  1  0
  1 22  1  0
  1 23  1  0
  2 24  1  0
  2 25  1  0
  3 26  1  0
  4 27  1  0
 11 28  1  0
 11 29  1  0
 13 30  1  0
 15 31  1  6
 16 32  1  0
 16 33  1  0
 17 34  1  6
 18 35  1  0
 19 36  1  0
 20 37  1  0
 20 38  1  0
 21 39  1  0
M  END
