
     RDKit          3D

 49 50  0  0  0  0  0  0  0  0999 V2000
   62.0650  137.7110   91.5030 C   0  0  0  0  0  0  0  0  0  0  0  0
   61.7540  138.6370   90.5000 C   0  0  0  0  0  0  0  0  0  0  0  0
   60.4340  139.0410   90.3030 C   0  0  0  0  0  0  0  0  0  0  0  0
   59.4270  138.5180   91.1180 C   0  0  0  0  0  0  0  0  0  0  0  0
   59.7290  137.5950   92.1220 C   0  0  0  0  0  0  0  0  0  0  0  0
   61.0510  137.1860   92.3120 C   0  0  0  0  0  0  0  0  0  0  0  0
   61.3720  136.2100   93.3880 C   0  0  0  0  0  0  0  0  0  0  0  0
   62.4150  135.4450   93.3510 N   0  0  0  0  0  0  0  0  0  0  0  0
   60.5610  136.1010   94.4780 N   0  0  0  0  0  0  0  0  0  0  0  0
   59.9970  139.9350   89.3640 O   0  0  0  0  0  0  0  0  0  0  0  0
   58.5900  140.1460   89.2680 C   0  0  0  0  0  0  0  0  0  0  0  0
   58.2850  141.6060   89.6120 C   0  0  0  0  0  0  0  0  0  0  0  0
   58.4250  141.8880   91.1120 C   0  0  0  0  0  0  0  0  0  0  0  0
   57.0820  141.9910   91.8360 C   0  0  0  0  0  0  0  0  0  0  0  0
   55.9760  141.1430   91.2100 C   0  0  0  0  0  0  0  0  0  0  0  0
   56.1730  139.7930   91.6320 O   0  0  0  0  0  0  0  0  0  0  0  0
   55.5460  139.3970   92.7800 C   0  0  0  0  0  0  0  0  0  0  0  0
   54.3960  139.9680   93.3270 C   0  0  0  0  0  0  0  0  0  0  0  0
   53.8540  139.4620   94.5150 C   0  0  0  0  0  0  0  0  0  0  0  0
   54.4630  138.3810   95.1600 C   0  0  0  0  0  0  0  0  0  0  0  0
   55.6180  137.8110   94.6190 C   0  0  0  0  0  0  0  0  0  0  0  0
   56.1520  138.3190   93.4320 C   0  0  0  0  0  0  0  0  0  0  0  0
   53.9040  137.8450   96.4290 C   0  0  0  0  0  0  0  0  0  0  0  0
   53.6510  136.5880   96.6080 N   0  0  0  0  0  0  0  0  0  0  0  0
   53.6260  138.6860   97.4640 N   0  0  0  0  0  0  0  0  0  0  0  0
   63.1078  137.3957   91.6553 H   0  0  0  0  0  0  0  0  0  0  0  0
   62.5534  139.0471   89.8654 H   0  0  0  0  0  0  0  0  0  0  0  0
   58.3850  138.8365   90.9674 H   0  0  0  0  0  0  0  0  0  0  0  0
   58.9290  137.1919   92.7604 H   0  0  0  0  0  0  0  0  0  0  0  0
   62.5964  134.7840   94.1198 H   0  0  0  0  0  0  0  0  0  0  0  0
   60.7856  135.4244   95.2215 H   0  0  0  0  0  0  0  0  0  0  0  0
   59.7235  136.6952   94.5583 H   0  0  0  0  0  0  0  0  0  0  0  0
   58.2528  139.9294   88.2436 H   0  0  0  0  0  0  0  0  0  0  0  0
   58.0638  139.4797   89.9674 H   0  0  0  0  0  0  0  0  0  0  0  0
   58.9848  142.2531   89.0629 H   0  0  0  0  0  0  0  0  0  0  0  0
   57.2428  141.8102   89.3255 H   0  0  0  0  0  0  0  0  0  0  0  0
   59.0058  141.0726   91.5678 H   0  0  0  0  0  0  0  0  0  0  0  0
   58.9262  142.8617   91.2151 H   0  0  0  0  0  0  0  0  0  0  0  0
   57.2232  141.6632   92.8765 H   0  0  0  0  0  0  0  0  0  0  0  0
   56.7598  143.0403   91.7645 H   0  0  0  0  0  0  0  0  0  0  0  0
   54.9924  141.5014   91.5477 H   0  0  0  0  0  0  0  0  0  0  0  0
   56.0110  141.2129   90.1128 H   0  0  0  0  0  0  0  0  0  0  0  0
   53.9136  140.8186   92.8232 H   0  0  0  0  0  0  0  0  0  0  0  0
   52.9474  139.9158   94.9417 H   0  0  0  0  0  0  0  0  0  0  0  0
   56.1054  136.9651   95.1258 H   0  0  0  0  0  0  0  0  0  0  0  0
   57.0592  137.8658   93.0058 H   0  0  0  0  0  0  0  0  0  0  0  0
   53.2637  136.2633   97.5055 H   0  0  0  0  0  0  0  0  0  0  0  0
   53.2388  138.3117   98.3420 H   0  0  0  0  0  0  0  0  0  0  0  0
   53.8030  139.6962   97.3686 H   0  0  0  0  0  0  0  0  0  0  0  0
  1  2  2  0
  2  3  1  0
  3  4  2  0
  4  5  1  0
  5  6  2  0
  6  7  1  0
  7  8  2  3
  7  9  1  0
  3 10  1  0
 10 11  1  0
 11 12  1  0
 12 13  1  0
 13 14  1  0
 14 15  1  0
 15 16  1  0
 16 17  1  0
 17 18  2  0
 18 19  1  0
 19 20  2  0
 20 21  1  0
 21 22  2  0
 20 23  1  0
 23 24  2  3
 23 25  1  0
  6  1  1  0
 22 17  1  0
  1 26  1  0
  2 27  1  0
  4 28  1  0
  5 29  1  0
  8 30  1  0
  9 31  1  0
  9 32  1  0
 11 33  1  0
 11 34  1  0
 12 35  1  0
 12 36  1  0
 13 37  1  0
 13 38  1  0
 14 39  1  0
 14 40  1  0
 15 41  1  0
 15 42  1  0
 18 43  1  0
 19 44  1  0
 21 45  1  0
 22 46  1  0
 24 47  1  0
 25 48  1  0
 25 49  1  0
M  END
