
     RDKit          3D

 54 57  0  0  0  0  0  0  0  0999 V2000
    6.8920   30.6320   25.5420 C   0  0  0  0  0  0  0  0  0  0  0  0
    7.5620   30.5710   24.1440 C   0  0  2  0  0  0  0  0  0  0  0  0
    7.3540   31.8970   23.3810 C   0  0  0  0  0  0  0  0  0  0  0  0
    5.9060   32.1250   22.8910 C   0  0  1  0  0  0  0  0  0  0  0  0
    5.2910   30.9000   22.1450 C   0  0  1  0  0  0  0  0  0  0  0  0
    5.5180   29.5590   22.9300 C   0  0  2  0  0  0  0  0  0  0  0  0
    7.0150   29.4320   23.2540 C   0  0  2  0  0  0  0  0  0  0  0  0
    7.5240   28.1690   23.9420 C   0  0  0  0  0  0  0  0  0  0  0  0
    8.9120   28.5630   24.4940 C   0  0  0  0  0  0  0  0  0  0  0  0
    9.0410   30.0920   24.2960 C   0  0  2  0  0  0  0  0  0  0  0  0
    9.8550   30.8700   25.3430 C   0  0  0  0  0  0  0  0  0  0  0  0
   10.4060   30.2620   26.2730 O   0  0  0  0  0  0  0  0  0  0  0  0
    9.9470   32.3860   25.2610 C   0  0  0  0  0  0  0  0  0  0  0  0
    9.6150   32.9960   26.5020 O   0  0  0  0  0  0  0  0  0  0  0  0
    9.7490   30.2820   23.0550 O   0  0  0  0  0  0  0  0  0  0  0  0
    5.0450   28.3460   22.1070 C   0  0  0  0  0  0  0  0  0  0  0  0
    3.6090   28.4930   21.6180 C   0  0  0  0  0  0  0  0  0  0  0  0
    3.4480   29.7880   20.8640 C   0  0  0  0  0  0  0  0  0  0  0  0
    3.0550   29.7830   19.5780 C   0  0  0  0  0  0  0  0  0  0  0  0
    2.9420   31.0280   18.7920 C   0  0  0  0  0  0  0  0  0  0  0  0
    2.5750   31.0120   17.6240 O   0  0  0  0  0  0  0  0  0  0  0  0
    3.2980   32.2890   19.4680 C   0  0  0  0  0  0  0  0  0  0  0  0
    3.6880   32.2960   20.7500 C   0  0  0  0  0  0  0  0  0  0  0  0
    3.8060   31.0640   21.6400 C   0  0  2  0  0  0  0  0  0  0  0  0
    2.7650   31.2450   22.7660 C   0  0  0  0  0  0  0  0  0  0  0  0
    5.1110   32.5900   23.9720 O   0  0  0  0  0  0  0  0  0  0  0  0
    7.6643   30.5617   26.3221 H   0  0  0  0  0  0  0  0  0  0  0  0
    6.3498   31.5832   25.6475 H   0  0  0  0  0  0  0  0  0  0  0  0
    6.1869   29.7943   25.6475 H   0  0  0  0  0  0  0  0  0  0  0  0
    7.6265   32.7265   24.0501 H   0  0  0  0  0  0  0  0  0  0  0  0
    7.9877   31.8481   22.4832 H   0  0  0  0  0  0  0  0  0  0  0  0
    5.9280   32.9058   22.1165 H   0  0  0  0  0  0  0  0  0  0  0  0
    5.8651   30.8501   21.2080 H   0  0  0  0  0  0  0  0  0  0  0  0
    4.9288   29.5773   23.8587 H   0  0  0  0  0  0  0  0  0  0  0  0
    7.3794   29.4425   22.2161 H   0  0  0  0  0  0  0  0  0  0  0  0
    6.8501   27.8728   24.7594 H   0  0  0  0  0  0  0  0  0  0  0  0
    7.5744   27.3102   23.2565 H   0  0  0  0  0  0  0  0  0  0  0  0
    8.9827   28.3101   25.5622 H   0  0  0  0  0  0  0  0  0  0  0  0
    9.7168   28.0235   23.9733 H   0  0  0  0  0  0  0  0  0  0  0  0
   10.9747   32.6675   24.9879 H   0  0  0  0  0  0  0  0  0  0  0  0
    9.2309   32.7348   24.5024 H   0  0  0  0  0  0  0  0  0  0  0  0
    9.9273   32.4221   27.2458 H   0  0  0  0  0  0  0  0  0  0  0  0
   10.6873   30.5338   23.2456 H   0  0  0  0  0  0  0  0  0  0  0  0
    5.7047   28.2339   21.2339 H   0  0  0  0  0  0  0  0  0  0  0  0
    5.0850   27.4632   22.7620 H   0  0  0  0  0  0  0  0  0  0  0  0
    3.3634   27.6520   20.9529 H   0  0  0  0  0  0  0  0  0  0  0  0
    2.9321   28.4950   22.4851 H   0  0  0  0  0  0  0  0  0  0  0  0
    2.8107   28.8240   19.0978 H   0  0  0  0  0  0  0  0  0  0  0  0
    3.2427   33.2368   18.9125 H   0  0  0  0  0  0  0  0  0  0  0  0
    3.9434   33.2686   21.1958 H   0  0  0  0  0  0  0  0  0  0  0  0
    3.2629   31.1584   23.7430 H   0  0  0  0  0  0  0  0  0  0  0  0
    2.2991   32.2376   22.6785 H   0  0  0  0  0  0  0  0  0  0  0  0
    1.9914   30.4679   22.6785 H   0  0  0  0  0  0  0  0  0  0  0  0
    5.5395   32.3393   24.8285 H   0  0  0  0  0  0  0  0  0  0  0  0
  2  1  1  1
  2  3  1  0
  3  4  1  0
  4  5  1  0
  5  6  1  0
  6  7  1  0
  7  8  1  0
  8  9  1  0
  9 10  1  0
 10 11  1  0
 11 12  2  0
 11 13  1  0
 13 14  1  0
 10 15  1  6
  6 16  1  0
 16 17  1  0
 17 18  1  0
 18 19  2  0
 19 20  1  0
 20 21  2  0
 20 22  1  0
 22 23  2  0
 23 24  1  0
 24 25  1  1
  4 26  1  0
  7  2  1  0
 10  2  1  0
 24  5  1  0
 24 18  1  0
  1 27  1  0
  1 28  1  0
  1 29  1  0
  3 30  1  0
  3 31  1  0
  4 32  1  6
  5 33  1  6
  6 34  1  1
  7 35  1  6
  8 36  1  0
  8 37  1  0
  9 38  1  0
  9 39  1  0
 13 40  1  0
 13 41  1  0
 14 42  1  0
 15 43  1  0
 16 44  1  0
 16 45  1  0
 17 46  1  0
 17 47  1  0
 19 48  1  0
 22 49  1  0
 23 50  1  0
 25 51  1  0
 25 52  1  0
 25 53  1  0
 26 54  1  0
M  END
