
     RDKit          3D

 49 50  0  0  0  0  0  0  0  0999 V2000
    9.7160   32.8950   24.0700 C   0  0  0  0  0  0  0  0  0  0  0  0
    9.1830   32.0130   22.9450 C   0  0  0  0  0  0  0  0  0  0  0  0
    7.8690   32.4790   22.4550 N   0  0  0  0  0  0  0  0  0  0  0  0
    7.0030   32.8690   23.5880 C   0  0  0  0  0  0  0  0  0  0  0  0
    5.5580   32.3870   23.3900 C   0  0  0  0  0  0  0  0  0  0  0  0
    5.5230   31.0430   22.6480 C   0  0  0  0  0  0  0  0  0  0  0  0
    5.0840   29.8820   23.5530 C   0  0  0  0  0  0  0  0  0  0  0  0
    3.6100   29.9430   23.9470 C   0  0  0  0  0  0  0  0  0  0  0  0
    5.9600   29.6770   24.7100 N   0  0  0  0  0  0  0  0  0  0  0  0
    7.2990   29.2830   24.7460 C   0  0  0  0  0  0  0  0  0  0  0  0
    8.1760   29.8610   25.7150 C   0  0  0  0  0  0  0  0  0  0  0  0
    7.7710   30.8300   26.6680 C   0  0  0  0  0  0  0  0  0  0  0  0
    8.6720   31.3740   27.5840 C   0  0  0  0  0  0  0  0  0  0  0  0
    9.9920   30.9520   27.5670 C   0  0  0  0  0  0  0  0  0  0  0  0
   10.4090   29.9900   26.6530 C   0  0  0  0  0  0  0  0  0  0  0  0
    9.5270   29.4340   25.7380 C   0  0  0  0  0  0  0  0  0  0  0  0
   10.0090   28.4960   24.9150 N   0  0  0  0  0  0  0  0  0  0  0  0
    9.1520   27.9300   24.0480 C   0  0  0  0  0  0  0  0  0  0  0  0
    7.8170   28.2740   23.9380 C   0  0  0  0  0  0  0  0  0  0  0  0
   11.1150   31.6140   28.6900 Cl  0  0  0  0  0  0  0  0  0  0  0  0
    8.0430   33.6220   21.5200 C   0  0  0  0  0  0  0  0  0  0  0  0
    7.2390   33.4110   20.2260 C   0  0  0  0  0  0  0  0  0  0  0  0
    6.0380   34.1800   20.2770 O   0  0  0  0  0  0  0  0  0  0  0  0
    9.4486   32.4525   25.0409 H   0  0  0  0  0  0  0  0  0  0  0  0
   10.8105   32.9697   23.9901 H   0  0  0  0  0  0  0  0  0  0  0  0
    9.2732   33.8988   23.9901 H   0  0  0  0  0  0  0  0  0  0  0  0
    9.8997   32.0289   22.1107 H   0  0  0  0  0  0  0  0  0  0  0  0
    9.0576   30.9943   23.3407 H   0  0  0  0  0  0  0  0  0  0  0  0
    7.4033   32.4259   24.5118 H   0  0  0  0  0  0  0  0  0  0  0  0
    6.9930   33.9672   23.6501 H   0  0  0  0  0  0  0  0  0  0  0  0
    5.0807   32.2673   24.3738 H   0  0  0  0  0  0  0  0  0  0  0  0
    5.0188   33.1336   22.7884 H   0  0  0  0  0  0  0  0  0  0  0  0
    4.8169   31.1220   21.8083 H   0  0  0  0  0  0  0  0  0  0  0  0
    6.5438   30.8272   22.2995 H   0  0  0  0  0  0  0  0  0  0  0  0
    5.1959   28.9850   22.9262 H   0  0  0  0  0  0  0  0  0  0  0  0
    3.5234   29.9466   25.0436 H   0  0  0  0  0  0  0  0  0  0  0  0
    3.1595   30.8606   23.5406 H   0  0  0  0  0  0  0  0  0  0  0  0
    3.0852   29.0658   23.5406 H   0  0  0  0  0  0  0  0  0  0  0  0
    5.5256   29.8481   25.6281 H   0  0  0  0  0  0  0  0  0  0  0  0
    6.7220   31.1605   26.6855 H   0  0  0  0  0  0  0  0  0  0  0  0
    8.3385   32.1290   28.3112 H   0  0  0  0  0  0  0  0  0  0  0  0
   11.4594   29.6635   26.6558 H   0  0  0  0  0  0  0  0  0  0  0  0
    9.5371   27.1427   23.3833 H   0  0  0  0  0  0  0  0  0  0  0  0
    7.1688   27.7542   23.2172 H   0  0  0  0  0  0  0  0  0  0  0  0
    7.6964   34.5431   22.0113 H   0  0  0  0  0  0  0  0  0  0  0  0
    9.1088   33.6985   21.2587 H   0  0  0  0  0  0  0  0  0  0  0  0
    7.8424   33.7315   19.3639 H   0  0  0  0  0  0  0  0  0  0  0  0
    6.9860   32.3454   20.1232 H   0  0  0  0  0  0  0  0  0  0  0  0
    5.7884   34.3398   21.2216 H   0  0  0  0  0  0  0  0  0  0  0  0
  1  2  1  0
  2  3  1  0
  3  4  1  0
  4  5  1  0
  5  6  1  0
  6  7  1  0
  7  8  1  0
  7  9  1  0
  9 10  1  0
 10 11  2  0
 11 12  1  0
 12 13  2  0
 13 14  1  0
 14 15  2  0
 15 16  1  0
 16 17  2  0
 17 18  1  0
 18 19  2  0
 14 20  1  0
  3 21  1  0
 21 22  1  0
 22 23  1  0
 19 10  1  0
 16 11  1  0
  1 24  1  0
  1 25  1  0
  1 26  1  0
  2 27  1  0
  2 28  1  0
  4 29  1  0
  4 30  1  0
  5 31  1  0
  5 32  1  0
  6 33  1  0
  6 34  1  0
  7 35  1  0
  8 36  1  0
  8 37  1  0
  8 38  1  0
  9 39  1  0
 12 40  1  0
 13 41  1  0
 15 42  1  0
 18 43  1  0
 19 44  1  0
 21 45  1  0
 21 46  1  0
 22 47  1  0
 22 48  1  0
 23 49  1  0
M  END
