
     RDKit          3D

 62 64  0  0  0  0  0  0  0  0999 V2000
    8.1720   26.8230   22.2300 C   0  0  0  0  0  0  0  0  0  0  0  0
    7.8250   27.8440   23.2720 C   0  0  0  0  0  0  0  0  0  0  0  0
    8.7430   28.2040   24.2500 C   0  0  0  0  0  0  0  0  0  0  0  0
   10.1220   27.7340   24.5030 C   0  0  0  0  0  0  0  0  0  0  0  0
   10.5250   28.4710   25.6790 O   0  0  0  0  0  0  0  0  0  0  0  0
    9.5390   29.3070   26.1070 C   0  0  0  0  0  0  0  0  0  0  0  0
    9.5560   30.0450   27.0750 O   0  0  0  0  0  0  0  0  0  0  0  0
    8.4200   29.1500   25.2000 C   0  0  0  0  0  0  0  0  0  0  0  0
    7.1980   29.7960   25.2400 C   0  0  0  0  0  0  0  0  0  0  0  0
    6.2230   29.4390   24.2990 C   0  0  0  0  0  0  0  0  0  0  0  0
    6.5430   28.4370   23.3440 C   0  0  0  0  0  0  0  0  0  0  0  0
    5.5820   28.0750   22.4310 O   0  0  0  0  0  0  0  0  0  0  0  0
    5.8280   28.6910   21.1640 C   0  0  0  0  0  0  0  0  0  0  0  0
    4.8400   30.0600   24.3630 C   0  0  0  0  0  0  0  0  0  0  0  0
    4.8080   31.3680   23.6100 C   0  0  0  0  0  0  0  0  0  0  0  0
    3.8060   32.2680   23.5360 C   0  0  0  0  0  0  0  0  0  0  0  0
    2.5380   32.1830   24.3450 C   0  0  0  0  0  0  0  0  0  0  0  0
    3.8260   33.4390   22.5630 C   0  0  0  0  0  0  0  0  0  0  0  0
    4.0200   33.1220   21.0770 C   0  0  0  0  0  0  0  0  0  0  0  0
    4.7730   34.1970   20.3270 C   0  0  0  0  0  0  0  0  0  0  0  0
    4.5760   35.3960   20.4950 O   0  0  0  0  0  0  0  0  0  0  0  0
    5.6540   33.6490   19.4480 O   0  0  0  0  0  0  0  0  0  0  0  0
    6.6500   32.7790   20.0090 C   0  0  0  0  0  0  0  0  0  0  0  0
    7.5190   33.5470   21.0210 C   0  0  0  0  0  0  0  0  0  0  0  0
    7.7110   32.8650   22.3130 N   0  0  0  0  0  0  0  0  0  0  0  0
    8.6170   33.6410   23.1850 C   0  0  0  0  0  0  0  0  0  0  0  0
    9.2060   32.7710   24.3050 C   0  0  0  0  0  0  0  0  0  0  0  0
   10.0440   31.7180   23.8050 O   0  0  0  0  0  0  0  0  0  0  0  0
    9.6740   31.2860   22.4880 C   0  0  0  0  0  0  0  0  0  0  0  0
    8.1780   31.4670   22.1820 C   0  0  0  0  0  0  0  0  0  0  0  0
    6.9300   30.7540   26.1770 O   0  0  0  0  0  0  0  0  0  0  0  0
    8.4887   25.8910   22.7210 H   0  0  0  0  0  0  0  0  0  0  0  0
    7.2905   26.6255   21.6023 H   0  0  0  0  0  0  0  0  0  0  0  0
    8.9913   27.2035   21.6023 H   0  0  0  0  0  0  0  0  0  0  0  0
   10.1383   26.6509   24.6942 H   0  0  0  0  0  0  0  0  0  0  0  0
   10.7922   27.8985   23.6464 H   0  0  0  0  0  0  0  0  0  0  0  0
    6.2318   29.7022   21.3202 H   0  0  0  0  0  0  0  0  0  0  0  0
    6.5548   28.0892   20.5986 H   0  0  0  0  0  0  0  0  0  0  0  0
    4.8866   28.7554   20.5986 H   0  0  0  0  0  0  0  0  0  0  0  0
    4.1120   29.3675   23.9153 H   0  0  0  0  0  0  0  0  0  0  0  0
    4.5863   30.2514   25.4161 H   0  0  0  0  0  0  0  0  0  0  0  0
    5.7200   31.6198   23.0489 H   0  0  0  0  0  0  0  0  0  0  0  0
    2.7851   32.1996   25.4168 H   0  0  0  0  0  0  0  0  0  0  0  0
    1.8915   33.0398   24.1045 H   0  0  0  0  0  0  0  0  0  0  0  0
    2.0116   31.2476   24.1045 H   0  0  0  0  0  0  0  0  0  0  0  0
    2.8667   33.9677   22.6644 H   0  0  0  0  0  0  0  0  0  0  0  0
    4.7166   34.0206   22.8435 H   0  0  0  0  0  0  0  0  0  0  0  0
    4.5808   32.1795   20.9919 H   0  0  0  0  0  0  0  0  0  0  0  0
    3.0189   33.0524   20.6265 H   0  0  0  0  0  0  0  0  0  0  0  0
    6.1538   31.9403   20.5192 H   0  0  0  0  0  0  0  0  0  0  0  0
    7.2919   32.4003   19.2000 H   0  0  0  0  0  0  0  0  0  0  0  0
    8.5087   33.7088   20.5690 H   0  0  0  0  0  0  0  0  0  0  0  0
    6.9844   34.4828   21.2411 H   0  0  0  0  0  0  0  0  0  0  0  0
    9.4396   34.0444   22.5763 H   0  0  0  0  0  0  0  0  0  0  0  0
    8.0369   34.4525   23.6486 H   0  0  0  0  0  0  0  0  0  0  0  0
    9.8041   33.4110   24.9703 H   0  0  0  0  0  0  0  0  0  0  0  0
    8.3660   32.3025   24.8388 H   0  0  0  0  0  0  0  0  0  0  0  0
   10.2524   31.8678   21.7552 H   0  0  0  0  0  0  0  0  0  0  0  0
    9.8890   30.2089   22.4279 H   0  0  0  0  0  0  0  0  0  0  0  0
    7.9912   31.1333   21.1506 H   0  0  0  0  0  0  0  0  0  0  0  0
    7.6232   30.8711   22.9217 H   0  0  0  0  0  0  0  0  0  0  0  0
    6.0480   31.2036   26.1870 H   0  0  0  0  0  0  0  0  0  0  0  0
  1  2  1  0
  2  3  2  0
  3  4  1  0
  4  5  1  0
  5  6  1  0
  6  7  2  0
  6  8  1  0
  8  9  2  0
  9 10  1  0
 10 11  2  0
 11 12  1  0
 12 13  1  0
 10 14  1  0
 14 15  1  0
 15 16  2  0
 16 17  1  0
 16 18  1  0
 18 19  1  0
 19 20  1  0
 20 21  2  0
 20 22  1  0
 22 23  1  0
 23 24  1  0
 24 25  1  0
 25 26  1  0
 26 27  1  0
 27 28  1  0
 28 29  1  0
 29 30  1  0
  9 31  1  0
 11  2  1  0
  8  3  1  0
 30 25  1  0
  1 32  1  0
  1 33  1  0
  1 34  1  0
  4 35  1  0
  4 36  1  0
 13 37  1  0
 13 38  1  0
 13 39  1  0
 14 40  1  0
 14 41  1  0
 15 42  1  0
 17 43  1  0
 17 44  1  0
 17 45  1  0
 18 46  1  0
 18 47  1  0
 19 48  1  0
 19 49  1  0
 23 50  1  0
 23 51  1  0
 24 52  1  0
 24 53  1  0
 26 54  1  0
 26 55  1  0
 27 56  1  0
 27 57  1  0
 29 58  1  0
 29 59  1  0
 30 60  1  0
 30 61  1  0
 31 62  1  0
M  END
