
     RDKit          3D

 56 58  0  0  0  0  0  0  0  0999 V2000
   61.1650  136.0870   93.7040 C   0  0  0  0  0  0  0  0  0  0  0  0
   60.3870  137.0980   92.8690 C   0  0  0  0  0  0  0  0  0  0  0  0
   61.2270  137.8750   91.9430 N   0  0  0  0  0  0  0  0  0  0  0  0
   62.4990  137.2190   91.6080 C   0  0  0  0  0  0  0  0  0  0  0  0
   62.7030  137.1740   90.0980 C   0  0  0  0  0  0  0  0  0  0  0  0
   60.4630  138.2590   90.7370 C   0  0  0  0  0  0  0  0  0  0  0  0
   59.8080  139.6560   90.7390 C   0  0  0  0  0  0  0  0  0  0  0  0
   58.4540  139.6270   91.2580 N   0  0  0  0  0  0  0  0  0  0  0  0
   57.4580  140.4050   90.7070 C   0  0  0  0  0  0  0  0  0  0  0  0
   57.6720  141.1980   89.7950 O   0  0  0  0  0  0  0  0  0  0  0  0
   56.1170  140.1500   91.2460 C   0  0  0  0  0  0  0  0  0  0  0  0
   55.4530  141.0220   92.1010 C   0  0  0  0  0  0  0  0  0  0  0  0
   54.2320  140.4790   92.4030 N   0  0  0  0  0  0  0  0  0  0  0  0
   54.0850  139.2670   91.7800 C   0  0  0  0  0  0  0  0  0  0  0  0
   55.2420  139.0130   91.0600 C   0  0  0  0  0  0  0  0  0  0  0  0
   55.5310  137.7780   90.2750 C   0  0  0  0  0  0  0  0  0  0  0  0
   52.8640  138.5830   91.9780 C   0  0  0  0  0  0  0  0  0  0  0  0
   51.6740  139.0390   91.5600 C   0  0  0  0  0  0  0  0  0  0  0  0
   50.3970  138.3400   91.7660 C   0  0  0  0  0  0  0  0  0  0  0  0
   49.4130  139.1400   91.1710 C   0  0  0  0  0  0  0  0  0  0  0  0
   48.0740  138.7990   91.1670 C   0  0  0  0  0  0  0  0  0  0  0  0
   47.7200  137.6010   91.7920 C   0  0  0  0  0  0  0  0  0  0  0  0
   48.7020  136.7980   92.3910 C   0  0  0  0  0  0  0  0  0  0  0  0
   50.0500  137.1540   92.3870 C   0  0  0  0  0  0  0  0  0  0  0  0
   48.3320  135.6540   92.9830 F   0  0  0  0  0  0  0  0  0  0  0  0
   49.9830  140.2780   90.6130 N   0  0  0  0  0  0  0  0  0  0  0  0
   51.3590  140.3050   90.7960 C   0  0  0  0  0  0  0  0  0  0  0  0
   52.1090  141.1760   90.4060 O   0  0  0  0  0  0  0  0  0  0  0  0
   55.8770  142.3310   92.6660 C   0  0  0  0  0  0  0  0  0  0  0  0
   61.0057  136.2940   94.7725 H   0  0  0  0  0  0  0  0  0  0  0  0
   60.8135  135.0711   93.4709 H   0  0  0  0  0  0  0  0  0  0  0  0
   62.2371  136.1665   93.4709 H   0  0  0  0  0  0  0  0  0  0  0  0
   59.6329  136.5548   92.2806 H   0  0  0  0  0  0  0  0  0  0  0  0
   59.9365  137.8148   93.5713 H   0  0  0  0  0  0  0  0  0  0  0  0
   63.3262  137.7802   92.0672 H   0  0  0  0  0  0  0  0  0  0  0  0
   62.4763  136.1884   91.9918 H   0  0  0  0  0  0  0  0  0  0  0  0
   63.7553  136.9419   89.8769 H   0  0  0  0  0  0  0  0  0  0  0  0
   62.0570  136.3968   89.6637 H   0  0  0  0  0  0  0  0  0  0  0  0
   62.4439  138.1509   89.6637 H   0  0  0  0  0  0  0  0  0  0  0  0
   61.1516  138.2164   89.8803 H   0  0  0  0  0  0  0  0  0  0  0  0
   59.6235  137.5496   90.6924 H   0  0  0  0  0  0  0  0  0  0  0  0
   60.4125  140.3295   91.3644 H   0  0  0  0  0  0  0  0  0  0  0  0
   59.7625  140.0084   89.6980 H   0  0  0  0  0  0  0  0  0  0  0  0
   58.2320  139.0127   92.0544 H   0  0  0  0  0  0  0  0  0  0  0  0
   53.5260  140.9184   93.0108 H   0  0  0  0  0  0  0  0  0  0  0  0
   55.7264  136.9430   90.9639 H   0  0  0  0  0  0  0  0  0  0  0  0
   54.6653  137.5355   89.6411 H   0  0  0  0  0  0  0  0  0  0  0  0
   56.4144  137.9448   89.6411 H   0  0  0  0  0  0  0  0  0  0  0  0
   52.8914  137.6188   92.5067 H   0  0  0  0  0  0  0  0  0  0  0  0
   47.3193  139.4432   90.6921 H   0  0  0  0  0  0  0  0  0  0  0  0
   46.6664  137.2858   91.8146 H   0  0  0  0  0  0  0  0  0  0  0  0
   50.8098  136.5149   92.8605 H   0  0  0  0  0  0  0  0  0  0  0  0
   49.4502  141.0113   90.1238 H   0  0  0  0  0  0  0  0  0  0  0  0
   55.8601  142.2789   93.7646 H   0  0  0  0  0  0  0  0  0  0  0  0
   56.8967  142.5643   92.3256 H   0  0  0  0  0  0  0  0  0  0  0  0
   55.1878  143.1178   92.3256 H   0  0  0  0  0  0  0  0  0  0  0  0
  1  2  1  0
  2  3  1  0
  3  4  1  0
  4  5  1  0
  3  6  1  0
  6  7  1  0
  7  8  1  0
  8  9  1  0
  9 10  2  0
  9 11  1  0
 11 12  2  0
 12 13  1  0
 13 14  1  0
 14 15  2  0
 15 16  1  0
 14 17  1  0
 17 18  2  0
 18 19  1  0
 19 20  1  0
 20 21  2  0
 21 22  1  0
 22 23  2  0
 23 24  1  0
 23 25  1  0
 20 26  1  0
 26 27  1  0
 27 28  2  0
 12 29  1  0
 15 11  1  0
 27 18  1  0
 24 19  2  0
  1 30  1  0
  1 31  1  0
  1 32  1  0
  2 33  1  0
  2 34  1  0
  4 35  1  0
  4 36  1  0
  5 37  1  0
  5 38  1  0
  5 39  1  0
  6 40  1  0
  6 41  1  0
  7 42  1  0
  7 43  1  0
  8 44  1  0
 13 45  1  0
 16 46  1  0
 16 47  1  0
 16 48  1  0
 17 49  1  0
 21 50  1  0
 22 51  1  0
 24 52  1  0
 26 53  1  0
 29 54  1  0
 29 55  1  0
 29 56  1  0
M  END
