
     RDKit          3D

 26 28  0  0  0  0  0  0  0  0999 V2000
    7.9420   28.3470   24.0770 C   0  0  0  0  0  0  0  0  0  0  0  0
    8.5330   29.6160   23.7170 N   0  0  0  0  0  0  0  0  0  0  0  0
    9.2820   29.8210   22.5880 C   0  0  0  0  0  0  0  0  0  0  0  0
    9.7260   31.0540   22.5100 N   0  0  0  0  0  0  0  0  0  0  0  0
    9.2370   31.6800   23.6420 C   0  0  0  0  0  0  0  0  0  0  0  0
    8.4780   30.8100   24.4010 C   0  0  0  0  0  0  0  0  0  0  0  0
    7.6430   30.9740   25.9150 S   0  0  0  0  0  0  0  0  0  0  0  0
    8.9850   30.6050   26.9990 C   0  0  0  0  0  0  0  0  0  0  0  0
    9.3020   29.3180   27.2550 N   0  0  0  0  0  0  0  0  0  0  0  0
   10.3620   29.0770   28.0520 C   0  0  0  0  0  0  0  0  0  0  0  0
   11.1630   29.9660   28.6520 N   0  0  0  0  0  0  0  0  0  0  0  0
   10.8220   31.2390   28.3880 C   0  0  0  0  0  0  0  0  0  0  0  0
    9.7570   31.5880   27.5800 C   0  0  0  0  0  0  0  0  0  0  0  0
    9.7520   32.9560   27.5840 N   0  0  0  0  0  0  0  0  0  0  0  0
   10.7880   33.3680   28.3760 C   0  0  0  0  0  0  0  0  0  0  0  0
   11.4570   32.3500   28.8710 N   0  0  0  0  0  0  0  0  0  0  0  0
    9.5430   33.0730   23.8860 N   0  0  0  0  0  0  0  0  0  0  0  0
    8.9150   33.9190   23.2260 O   0  0  0  0  0  0  0  0  0  0  0  0
   10.4130   33.3330   24.7270 O   0  0  0  0  0  0  0  0  0  0  0  0
    7.9011   28.2592   25.1727 H   0  0  0  0  0  0  0  0  0  0  0  0
    6.9234   28.2872   23.6661 H   0  0  0  0  0  0  0  0  0  0  0  0
    8.5517   27.5288   23.6661 H   0  0  0  0  0  0  0  0  0  0  0  0
    9.4869   29.0446   21.8362 H   0  0  0  0  0  0  0  0  0  0  0  0
   10.5983   28.0178   28.2318 H   0  0  0  0  0  0  0  0  0  0  0  0
    9.0893   33.5643   27.0824 H   0  0  0  0  0  0  0  0  0  0  0  0
   11.0318   34.4221   28.5746 H   0  0  0  0  0  0  0  0  0  0  0  0
  1  2  1  0
  2  3  1  0
  3  4  2  0
  4  5  1  0
  5  6  2  0
  6  7  1  0
  7  8  1  0
  8  9  2  0
  9 10  1  0
 10 11  2  0
 11 12  1  0
 12 13  2  0
 13 14  1  0
 14 15  1  0
 15 16  2  0
  5 17  1  0
 17 18  2  0
 17 19  1  0
  6  2  1  0
 13  8  1  0
 16 12  1  0
  1 20  1  0
  1 21  1  0
  1 22  1  0
  3 23  1  0
 10 24  1  0
 14 25  1  0
 15 26  1  0
M  CHG  2  17   1  19  -1
M  END
