
     RDKit          3D

 65 67  0  0  0  0  0  0  0  0999 V2000
   51.7940  140.7370   90.8200 C   0  0  0  0  0  0  0  0  0  0  0  0
   52.9420  139.9590   91.4540 C   0  0  1  0  0  0  0  0  0  0  0  0
   52.6830  138.4630   91.2430 C   0  0  0  0  0  0  0  0  0  0  0  0
   53.4970  137.6820   90.7630 O   0  0  0  0  0  0  0  0  0  0  0  0
   51.4120  138.1460   91.6190 O   0  0  0  0  0  0  0  0  0  0  0  0
   51.2380  136.8580   92.2390 C   0  0  0  0  0  0  0  0  0  0  0  0
   49.7590  136.4900   92.2430 C   0  0  0  0  0  0  0  0  0  0  0  0
   51.7710  136.9680   93.6620 C   0  0  0  0  0  0  0  0  0  0  0  0
   54.2430  140.2940   90.8730 N   0  0  0  0  0  0  0  0  0  0  0  0
   55.5440  140.6300   91.7880 P   0  0  2  0  0  5  0  0  0  0  0  0
   55.4390  141.8860   92.5990 O   0  0  0  0  0  0  0  0  0  0  0  0
   56.8000  140.6330   90.7770 O   0  0  0  0  0  0  0  0  0  0  0  0
   57.9760  141.3360   91.1600 C   0  0  0  0  0  0  0  0  0  0  0  0
   59.1320  140.8970   90.2640 C   0  0  2  0  0  0  0  0  0  0  0  0
   58.7340  139.7920   89.2880 C   0  0  2  0  0  0  0  0  0  0  0  0
   60.0780  139.1300   89.0210 C   0  0  1  0  0  0  0  0  0  0  0  0
   60.8370  139.3070   90.3470 C   0  0  1  0  0  0  0  0  0  0  0  0
   60.2000  140.3700   91.0830 O   0  0  0  0  0  0  0  0  0  0  0  0
   61.0040  138.1480   91.2320 N   0  0  0  0  0  0  0  0  0  0  0  0
   60.0210  137.8820   92.1700 C   0  0  0  0  0  0  0  0  0  0  0  0
   60.0870  136.8330   92.9940 C   0  0  0  0  0  0  0  0  0  0  0  0
   61.2380  135.9270   92.8990 C   0  0  0  0  0  0  0  0  0  0  0  0
   61.3490  134.9610   93.6440 O   0  0  0  0  0  0  0  0  0  0  0  0
   62.1580  136.2430   91.9420 N   0  0  0  0  0  0  0  0  0  0  0  0
   62.1100  137.3190   91.0960 C   0  0  0  0  0  0  0  0  0  0  0  0
   63.0270  137.5050   90.3010 O   0  0  0  0  0  0  0  0  0  0  0  0
   60.0040  137.7340   88.4340 C   0  0  0  0  0  0  0  0  0  0  0  0
   60.7540  139.8970   88.0930 F   0  0  0  0  0  0  0  0  0  0  0  0
   58.1250  140.2720   88.0920 O   0  0  0  0  0  0  0  0  0  0  0  0
   55.8020  139.3010   92.6750 O   0  0  0  0  0  0  0  0  0  0  0  0
   55.2210  139.1090   93.8950 C   0  0  0  0  0  0  0  0  0  0  0  0
   54.4210  140.0810   94.4870 C   0  0  0  0  0  0  0  0  0  0  0  0
   53.8540  139.8400   95.7400 C   0  0  0  0  0  0  0  0  0  0  0  0
   54.0780  138.6240   96.3850 C   0  0  0  0  0  0  0  0  0  0  0  0
   54.8630  137.6440   95.7760 C   0  0  0  0  0  0  0  0  0  0  0  0
   55.4280  137.8840   94.5240 C   0  0  0  0  0  0  0  0  0  0  0  0
   51.1610  141.1660   91.6107 H   0  0  0  0  0  0  0  0  0  0  0  0
   52.2003  141.5466   90.1959 H   0  0  0  0  0  0  0  0  0  0  0  0
   51.1926  140.0596   90.1959 H   0  0  0  0  0  0  0  0  0  0  0  0
   52.9790  140.2249   92.5207 H   0  0  0  0  0  0  0  0  0  0  0  0
   51.7792  136.0727   91.6909 H   0  0  0  0  0  0  0  0  0  0  0  0
   49.4058  136.4021   93.2811 H   0  0  0  0  0  0  0  0  0  0  0  0
   49.1850  137.2727   91.7254 H   0  0  0  0  0  0  0  0  0  0  0  0
   49.6187  135.5296   91.7254 H   0  0  0  0  0  0  0  0  0  0  0  0
   50.9506  136.7987   94.3749 H   0  0  0  0  0  0  0  0  0  0  0  0
   52.5551  136.2128   93.8192 H   0  0  0  0  0  0  0  0  0  0  0  0
   52.1921  137.9720   93.8192 H   0  0  0  0  0  0  0  0  0  0  0  0
   54.5076  139.4933   90.2815 H   0  0  0  0  0  0  0  0  0  0  0  0
   57.8122  142.4178   91.0470 H   0  0  0  0  0  0  0  0  0  0  0  0
   58.2155  141.1148   92.2106 H   0  0  0  0  0  0  0  0  0  0  0  0
   59.4412  141.7852   89.6935 H   0  0  0  0  0  0  0  0  0  0  0  0
   57.9631  139.1192   89.6919 H   0  0  0  0  0  0  0  0  0  0  0  0
   61.8695  139.5171   90.0310 H   0  0  0  0  0  0  0  0  0  0  0  0
   59.1559  138.5579   92.2389 H   0  0  0  0  0  0  0  0  0  0  0  0
   59.2918  136.6509   93.7319 H   0  0  0  0  0  0  0  0  0  0  0  0
   62.9662  135.6116   91.8467 H   0  0  0  0  0  0  0  0  0  0  0  0
   59.9649  136.9955   89.2483 H   0  0  0  0  0  0  0  0  0  0  0  0
   59.0998  137.6444   87.8139 H   0  0  0  0  0  0  0  0  0  0  0  0
   60.8936  137.5493   87.8139 H   0  0  0  0  0  0  0  0  0  0  0  0
   57.3689  140.8679   88.3229 H   0  0  0  0  0  0  0  0  0  0  0  0
   54.2361  141.0345   93.9707 H   0  0  0  0  0  0  0  0  0  0  0  0
   53.2304  140.6095   96.2185 H   0  0  0  0  0  0  0  0  0  0  0  0
   53.6356  138.4372   97.3746 H   0  0  0  0  0  0  0  0  0  0  0  0
   55.0359  136.6833   96.2831 H   0  0  0  0  0  0  0  0  0  0  0  0
   56.0353  137.1082   94.0348 H   0  0  0  0  0  0  0  0  0  0  0  0
  1  2  1  0
  2  3  1  0
  3  4  2  0
  3  5  1  0
  5  6  1  0
  6  7  1  0
  6  8  1  0
  2  9  1  0
  9 10  1  0
 10 11  2  0
 10 12  1  6
 12 13  1  0
 13 14  1  0
 14 15  1  0
 15 16  1  0
 16 17  1  0
 17 18  1  0
 17 19  1  0
 19 20  1  0
 20 21  2  0
 21 22  1  0
 22 23  2  0
 22 24  1  0
 24 25  1  0
 25 26  2  0
 16 27  1  0
 16 28  1  6
 15 29  1  0
 10 30  1  0
 30 31  1  0
 31 32  2  0
 32 33  1  0
 33 34  2  0
 34 35  1  0
 35 36  2  0
 18 14  1  0
 25 19  1  0
 36 31  1  0
  1 37  1  0
  1 38  1  0
  1 39  1  0
  2 40  1  1
  6 41  1  0
  7 42  1  0
  7 43  1  0
  7 44  1  0
  8 45  1  0
  8 46  1  0
  8 47  1  0
  9 48  1  0
 13 49  1  0
 13 50  1  0
 14 51  1  6
 15 52  1  1
 17 53  1  6
 20 54  1  0
 21 55  1  0
 24 56  1  0
 27 57  1  0
 27 58  1  0
 27 59  1  0
 29 60  1  0
 32 61  1  0
 33 62  1  0
 34 63  1  0
 35 64  1  0
 36 65  1  0
M  END
