
     RDKit          3D

 33 34  0  0  0  0  0  0  0  0999 V2000
   51.5650  137.2070   92.5680 C   0  0  0  0  0  0  0  0  0  0  0  0
   52.6560  137.4580   91.5350 C   0  0  0  0  0  0  0  0  0  0  0  0
   52.9270  138.9400   91.2720 C   0  0  0  0  0  0  0  0  0  0  0  0
   53.3300  139.8470   92.8050 S   0  0  0  0  0  0  0  0  0  0  0  0
   54.8160  138.9730   93.2750 C   0  0  0  0  0  0  0  0  0  0  0  0
   55.9240  139.0050   92.4160 C   0  0  0  0  0  0  0  0  0  0  0  0
   57.0880  138.3200   92.7930 C   0  0  0  0  0  0  0  0  0  0  0  0
   57.1170  137.6410   94.0060 C   0  0  0  0  0  0  0  0  0  0  0  0
   56.0380  137.6000   94.8890 C   0  0  0  0  0  0  0  0  0  0  0  0
   54.8820  138.2870   94.4960 C   0  0  0  0  0  0  0  0  0  0  0  0
   58.3750  137.1020   94.0560 N   0  0  0  0  0  0  0  0  0  0  0  0
   59.0410  137.4590   92.9120 C   0  0  0  0  0  0  0  0  0  0  0  0
   58.2870  138.1940   92.1300 N   0  0  0  0  0  0  0  0  0  0  0  0
   60.3280  137.0940   92.6270 N   0  0  0  0  0  0  0  0  0  0  0  0
   61.0890  136.3280   93.4570 C   0  0  0  0  0  0  0  0  0  0  0  0
   60.7400  135.8740   94.5400 O   0  0  0  0  0  0  0  0  0  0  0  0
   62.3120  136.1410   92.8970 O   0  0  0  0  0  0  0  0  0  0  0  0
   62.4440  136.6870   91.5830 C   0  0  0  0  0  0  0  0  0  0  0  0
   51.9878  137.3043   93.5788 H   0  0  0  0  0  0  0  0  0  0  0  0
   50.7583  137.9430   92.4356 H   0  0  0  0  0  0  0  0  0  0  0  0
   51.1611  136.1925   92.4356 H   0  0  0  0  0  0  0  0  0  0  0  0
   53.5865  136.9934   91.8933 H   0  0  0  0  0  0  0  0  0  0  0  0
   52.3063  137.0228   90.5872 H   0  0  0  0  0  0  0  0  0  0  0  0
   53.7735  139.0276   90.5751 H   0  0  0  0  0  0  0  0  0  0  0  0
   52.0133  139.3814   90.8474 H   0  0  0  0  0  0  0  0  0  0  0  0
   55.8809  139.5566   91.4653 H   0  0  0  0  0  0  0  0  0  0  0  0
   56.0919  137.0567   95.8439 H   0  0  0  0  0  0  0  0  0  0  0  0
   54.0057  138.2882   95.1609 H   0  0  0  0  0  0  0  0  0  0  0  0
   58.5389  138.5923   91.2141 H   0  0  0  0  0  0  0  0  0  0  0  0
   60.7424  137.4145   91.7402 H   0  0  0  0  0  0  0  0  0  0  0  0
   62.7020  137.7540   91.6535 H   0  0  0  0  0  0  0  0  0  0  0  0
   63.2388  136.1526   91.0420 H   0  0  0  0  0  0  0  0  0  0  0  0
   61.4928  136.5747   91.0420 H   0  0  0  0  0  0  0  0  0  0  0  0
  1  2  1  0
  2  3  1  0
  3  4  1  0
  4  5  1  0
  5  6  2  0
  6  7  1  0
  7  8  2  0
  8  9  1  0
  9 10  2  0
  8 11  1  0
 11 12  2  0
 12 13  1  0
 12 14  1  0
 14 15  1  0
 15 16  2  0
 15 17  1  0
 17 18  1  0
 10  5  1  0
 13  7  1  0
  1 19  1  0
  1 20  1  0
  1 21  1  0
  2 22  1  0
  2 23  1  0
  3 24  1  0
  3 25  1  0
  6 26  1  0
  9 27  1  0
 10 28  1  0
 13 29  1  0
 14 30  1  0
 18 31  1  0
 18 32  1  0
 18 33  1  0
M  END
