
     RDKit          3D

 65 67  0  0  0  0  0  0  0  0999 V2000
   52.1500  137.1620   91.8340 C   0  0  0  0  0  0  0  0  0  0  0  0
   51.0340  138.0340   92.3890 C   0  0  0  0  0  0  0  0  0  0  0  0
   51.3900  138.6920   93.7300 C   0  0  2  0  0  0  0  0  0  0  0  0
   50.4170  138.3260   94.8470 C   0  0  0  0  0  0  0  0  0  0  0  0
   51.4150  140.2020   93.5770 C   0  0  0  0  0  0  0  0  0  0  0  0
   50.4580  140.9430   93.7450 O   0  0  0  0  0  0  0  0  0  0  0  0
   52.6680  140.6070   93.2250 O   0  0  0  0  0  0  0  0  0  0  0  0
   53.5380  141.0400   94.3010 C   0  0  1  0  0  0  0  0  0  0  0  0
   52.6530  141.7150   95.3670 C   0  0  0  0  0  0  0  0  0  0  0  0
   53.0890  141.4450   96.8060 C   0  0  2  0  0  0  0  0  0  0  0  0
   53.2420  139.9620   96.9990 C   0  0  0  0  0  0  0  0  0  0  0  0
   53.8360  139.2000   96.0640 C   0  0  0  0  0  0  0  0  0  0  0  0
   54.4090  139.8390   94.8050 C   0  0  1  0  0  0  0  0  0  0  0  0
   54.7370  138.7940   93.6840 C   0  0  2  0  0  0  0  0  0  0  0  0
   55.4700  137.5450   94.2560 C   0  0  2  0  0  0  0  0  0  0  0  0
   54.7620  137.0190   95.4760 C   0  0  0  0  0  0  0  0  0  0  0  0
   54.0150  137.7820   96.2820 C   0  0  0  0  0  0  0  0  0  0  0  0
   56.9450  137.7700   94.5960 C   0  0  0  0  0  0  0  0  0  0  0  0
   55.4840  139.4440   92.4900 C   0  0  0  0  0  0  0  0  0  0  0  0
   55.5830  138.5250   91.2670 C   0  0  0  0  0  0  0  0  0  0  0  0
   57.0260  138.2340   90.8280 C   0  0  2  0  0  0  0  0  0  0  0  0
   58.0560  139.1150   91.5320 C   0  0  0  0  0  0  0  0  0  0  0  0
   59.4520  138.8940   90.9460 C   0  0  2  0  0  0  0  0  0  0  0  0
   59.4450  138.0740   89.6680 C   0  0  0  0  0  0  0  0  0  0  0  0
   58.2920  138.4560   88.7910 C   0  0  0  0  0  0  0  0  0  0  0  0
   58.4150  138.6720   87.5920 O   0  0  0  0  0  0  0  0  0  0  0  0
   57.0860  138.5040   89.4090 O   0  0  0  0  0  0  0  0  0  0  0  0
   60.2380  138.2120   91.9240 O   0  0  0  0  0  0  0  0  0  0  0  0
   52.0730  142.0320   97.7860 C   0  0  0  0  0  0  0  0  0  0  0  0
   52.7172  136.7188   92.6658 H   0  0  0  0  0  0  0  0  0  0  0  0
   51.7169  136.3606   91.2174 H   0  0  0  0  0  0  0  0  0  0  0  0
   52.8229  137.7760   91.2174 H   0  0  0  0  0  0  0  0  0  0  0  0
   50.8134  138.8263   91.6585 H   0  0  0  0  0  0  0  0  0  0  0  0
   50.1664  137.3812   92.5655 H   0  0  0  0  0  0  0  0  0  0  0  0
   52.3831  138.3120   94.0118 H   0  0  0  0  0  0  0  0  0  0  0  0
   50.8938  138.5053   95.8220 H   0  0  0  0  0  0  0  0  0  0  0  0
   49.5117  138.9450   94.7621 H   0  0  0  0  0  0  0  0  0  0  0  0
   50.1441  137.2638   94.7621 H   0  0  0  0  0  0  0  0  0  0  0  0
   54.2761  141.7886   93.9773 H   0  0  0  0  0  0  0  0  0  0  0  0
   52.6770  142.8016   95.1975 H   0  0  0  0  0  0  0  0  0  0  0  0
   51.6451  141.2884   95.2570 H   0  0  0  0  0  0  0  0  0  0  0  0
   54.0562  141.9305   97.0028 H   0  0  0  0  0  0  0  0  0  0  0  0
   52.8623  139.4933   97.9189 H   0  0  0  0  0  0  0  0  0  0  0  0
   55.3810  140.2689   95.0884 H   0  0  0  0  0  0  0  0  0  0  0  0
   53.7807  138.4289   93.2813 H   0  0  0  0  0  0  0  0  0  0  0  0
   55.4420  136.8086   93.4393 H   0  0  0  0  0  0  0  0  0  0  0  0
   54.8643  135.9507   95.7175 H   0  0  0  0  0  0  0  0  0  0  0  0
   53.5179  137.3125   97.1436 H   0  0  0  0  0  0  0  0  0  0  0  0
   57.0706  137.7892   95.6886 H   0  0  0  0  0  0  0  0  0  0  0  0
   57.5477  136.9534   94.1719 H   0  0  0  0  0  0  0  0  0  0  0  0
   57.2769  138.7292   94.1719 H   0  0  0  0  0  0  0  0  0  0  0  0
   54.9470  140.3584   92.1976 H   0  0  0  0  0  0  0  0  0  0  0  0
   56.5106  139.6564   92.8232 H   0  0  0  0  0  0  0  0  0  0  0  0
   55.0947  137.5698   91.5101 H   0  0  0  0  0  0  0  0  0  0  0  0
   55.0923  139.0470   90.4323 H   0  0  0  0  0  0  0  0  0  0  0  0
   57.2702  137.1926   91.0846 H   0  0  0  0  0  0  0  0  0  0  0  0
   57.7746  140.1707   91.4047 H   0  0  0  0  0  0  0  0  0  0  0  0
   58.0759  138.8497   92.5993 H   0  0  0  0  0  0  0  0  0  0  0  0
   59.8662  139.8805   90.6904 H   0  0  0  0  0  0  0  0  0  0  0  0
   60.3846  138.2488   89.1233 H   0  0  0  0  0  0  0  0  0  0  0  0
   59.3457  137.0113   89.9341 H   0  0  0  0  0  0  0  0  0  0  0  0
   59.9368  138.4733   92.8301 H   0  0  0  0  0  0  0  0  0  0  0  0
   52.4050  141.8402   98.8170 H   0  0  0  0  0  0  0  0  0  0  0  0
   51.9908  143.1168   97.6231 H   0  0  0  0  0  0  0  0  0  0  0  0
   51.0922  141.5614   97.6231 H   0  0  0  0  0  0  0  0  0  0  0  0
  1  2  1  0
  2  3  1  0
  3  4  1  0
  3  5  1  0
  5  6  2  0
  5  7  1  0
  7  8  1  0
  8  9  1  0
  9 10  1  0
 10 11  1  0
 11 12  2  0
 12 13  1  0
 13 14  1  0
 14 15  1  0
 15 16  1  0
 16 17  2  0
 15 18  1  0
 14 19  1  0
 19 20  1  0
 20 21  1  0
 21 22  1  0
 22 23  1  0
 23 24  1  0
 24 25  1  0
 25 26  2  0
 25 27  1  0
 23 28  1  0
 10 29  1  0
 13  8  1  0
 17 12  1  0
 27 21  1  0
  1 30  1  0
  1 31  1  0
  1 32  1  0
  2 33  1  0
  2 34  1  0
  3 35  1  1
  4 36  1  0
  4 37  1  0
  4 38  1  0
  8 39  1  6
  9 40  1  0
  9 41  1  0
 10 42  1  1
 11 43  1  0
 13 44  1  1
 14 45  1  6
 15 46  1  6
 16 47  1  0
 17 48  1  0
 18 49  1  0
 18 50  1  0
 18 51  1  0
 19 52  1  0
 19 53  1  0
 20 54  1  0
 20 55  1  0
 21 56  1  6
 22 57  1  0
 22 58  1  0
 23 59  1  6
 24 60  1  0
 24 61  1  0
 28 62  1  0
 29 63  1  0
 29 64  1  0
 29 65  1  0
M  END
