
     RDKit          3D

 34 36  0  0  0  0  0  0  0  0999 V2000
   51.6830  140.1570   92.5260 C   0  0  0  0  0  0  0  0  0  0  0  0
   51.3350  139.0030   93.2160 C   0  0  0  0  0  0  0  0  0  0  0  0
   50.1420  138.5200   92.5990 C   0  0  0  0  0  0  0  0  0  0  0  0
   49.8180  139.3750   91.5550 C   0  0  0  0  0  0  0  0  0  0  0  0
   50.7590  140.3710   91.5360 N   0  0  0  0  0  0  0  0  0  0  0  0
   48.6990  139.1370   90.7750 C   0  0  0  0  0  0  0  0  0  0  0  0
   47.9440  138.0700   91.0730 N   0  0  0  0  0  0  0  0  0  0  0  0
   48.3260  137.2900   92.1010 C   0  0  0  0  0  0  0  0  0  0  0  0
   49.3900  137.4410   92.9040 N   0  0  0  0  0  0  0  0  0  0  0  0
   48.3250  139.9270   89.6980 N   0  0  0  0  0  0  0  0  0  0  0  0
   52.0910  138.4110   94.3630 C   0  0  1  0  0  0  0  0  0  0  0  0
   52.6330  136.9900   94.1460 C   0  0  1  0  0  0  0  0  0  0  0  0
   53.8180  136.9640   95.1060 C   0  0  1  0  0  0  0  0  0  0  0  0
   54.3860  138.3790   94.9950 C   0  0  2  0  0  0  0  0  0  0  0  0
   53.2430  139.2860   94.6680 N   0  0  0  0  0  0  0  0  0  0  0  0
   55.4360  138.4940   93.8790 C   0  0  0  0  0  0  0  0  0  0  0  0
   56.4220  137.4750   94.0460 O   0  0  0  0  0  0  0  0  0  0  0  0
   53.3460  136.7250   96.4410 O   0  0  0  0  0  0  0  0  0  0  0  0
   51.6970  135.9690   94.5090 O   0  0  0  0  0  0  0  0  0  0  0  0
   52.5548  140.7933   92.7384 H   0  0  0  0  0  0  0  0  0  0  0  0
   50.7704  141.1621   90.8765 H   0  0  0  0  0  0  0  0  0  0  0  0
   47.6858  136.4199   92.3088 H   0  0  0  0  0  0  0  0  0  0  0  0
   47.4793  139.6945   89.1579 H   0  0  0  0  0  0  0  0  0  0  0  0
   48.8929  140.7461   89.4383 H   0  0  0  0  0  0  0  0  0  0  0  0
   51.3600  138.3379   95.1817 H   0  0  0  0  0  0  0  0  0  0  0  0
   52.8696  136.7892   93.0907 H   0  0  0  0  0  0  0  0  0  0  0  0
   54.5572  136.1823   94.8767 H   0  0  0  0  0  0  0  0  0  0  0  0
   54.8776  138.6442   95.9426 H   0  0  0  0  0  0  0  0  0  0  0  0
   53.0272  139.8917   95.4726 H   0  0  0  0  0  0  0  0  0  0  0  0
   54.9465  138.3738   92.9013 H   0  0  0  0  0  0  0  0  0  0  0  0
   55.9175  139.4817   93.9292 H   0  0  0  0  0  0  0  0  0  0  0  0
   56.5740  137.3179   95.0116 H   0  0  0  0  0  0  0  0  0  0  0  0
   54.0117  137.0621   97.0917 H   0  0  0  0  0  0  0  0  0  0  0  0
   51.6412  135.9081   95.4955 H   0  0  0  0  0  0  0  0  0  0  0  0
  1  2  2  0
  2  3  1  0
  3  4  2  0
  4  5  1  0
  4  6  1  0
  6  7  2  0
  7  8  1  0
  8  9  2  0
  6 10  1  0
  2 11  1  0
 11 12  1  0
 12 13  1  0
 13 14  1  0
 14 15  1  0
 14 16  1  0
 16 17  1  0
 13 18  1  0
 12 19  1  0
  5  1  1  0
  9  3  1  0
 15 11  1  0
  1 20  1  0
  5 21  1  0
  8 22  1  0
 10 23  1  0
 10 24  1  0
 11 25  1  1
 12 26  1  6
 13 27  1  6
 14 28  1  1
 15 29  1  0
 16 30  1  0
 16 31  1  0
 17 32  1  0
 18 33  1  0
 19 34  1  0
M  END
