
     RDKit          3D

 56 58  0  0  0  0  0  0  0  0999 V2000
    3.2860   32.2890   23.9360 C   0  0  0  0  0  0  0  0  0  0  0  0
    3.5310   32.1280   22.4410 C   0  0  0  0  0  0  0  0  0  0  0  0
    2.9150   30.9210   21.8630 N   0  0  0  0  0  0  0  0  0  0  0  0
    3.2990   30.6730   20.4670 C   0  0  0  0  0  0  0  0  0  0  0  0
    3.9800   31.8980   19.8680 C   0  0  0  0  0  0  0  0  0  0  0  0
    3.1570   29.7440   22.7250 C   0  0  0  0  0  0  0  0  0  0  0  0
    4.3290   28.8200   22.3340 C   0  0  0  0  0  0  0  0  0  0  0  0
    5.5620   29.1830   23.0050 N   0  0  0  0  0  0  0  0  0  0  0  0
    6.6250   29.7190   22.3110 C   0  0  0  0  0  0  0  0  0  0  0  0
    6.6090   29.8640   21.0920 O   0  0  0  0  0  0  0  0  0  0  0  0
    7.7390   30.1710   23.1540 C   0  0  0  0  0  0  0  0  0  0  0  0
    8.8190   29.3660   23.4980 C   0  0  0  0  0  0  0  0  0  0  0  0
    9.6670   30.1000   24.2840 N   0  0  0  0  0  0  0  0  0  0  0  0
    9.1640   31.3600   24.4760 C   0  0  0  0  0  0  0  0  0  0  0  0
    7.9550   31.4450   23.8030 C   0  0  0  0  0  0  0  0  0  0  0  0
    7.0410   32.6240   23.7900 C   0  0  0  0  0  0  0  0  0  0  0  0
    9.9350   32.2520   25.2560 C   0  0  0  0  0  0  0  0  0  0  0  0
   10.0870   32.1470   26.5840 C   0  0  0  0  0  0  0  0  0  0  0  0
   10.8800   33.0730   27.4060 C   0  0  0  0  0  0  0  0  0  0  0  0
   10.7910   32.6010   28.7220 C   0  0  0  0  0  0  0  0  0  0  0  0
   11.4170   33.2260   29.7840 C   0  0  0  0  0  0  0  0  0  0  0  0
   12.1600   34.3740   29.5000 C   0  0  0  0  0  0  0  0  0  0  0  0
   12.2500   34.8510   28.1830 C   0  0  0  0  0  0  0  0  0  0  0  0
   11.6130   34.2100   27.1210 C   0  0  0  0  0  0  0  0  0  0  0  0
   12.9700   35.9550   27.9410 F   0  0  0  0  0  0  0  0  0  0  0  0
   10.0070   31.4560   28.7770 N   0  0  0  0  0  0  0  0  0  0  0  0
    9.5340   31.0970   27.5220 C   0  0  0  0  0  0  0  0  0  0  0  0
    8.8330   30.1370   27.2750 O   0  0  0  0  0  0  0  0  0  0  0  0
    9.1190   27.9510   23.1500 C   0  0  0  0  0  0  0  0  0  0  0  0
    4.0775   31.7688   24.4954 H   0  0  0  0  0  0  0  0  0  0  0  0
    3.2950   33.3578   24.1960 H   0  0  0  0  0  0  0  0  0  0  0  0
    2.3085   31.8566   24.1960 H   0  0  0  0  0  0  0  0  0  0  0  0
    3.1191   33.0081   21.9255 H   0  0  0  0  0  0  0  0  0  0  0  0
    4.6179   32.0294   22.3038 H   0  0  0  0  0  0  0  0  0  0  0  0
    3.9928   29.8202   20.4297 H   0  0  0  0  0  0  0  0  0  0  0  0
    2.3917   30.4537   19.8850 H   0  0  0  0  0  0  0  0  0  0  0  0
    4.3419   32.5489   20.6776 H   0  0  0  0  0  0  0  0  0  0  0  0
    4.8298   31.5782   19.2471 H   0  0  0  0  0  0  0  0  0  0  0  0
    3.2598   32.4510   19.2471 H   0  0  0  0  0  0  0  0  0  0  0  0
    3.3500   30.1123   23.7434 H   0  0  0  0  0  0  0  0  0  0  0  0
    2.2554   29.1225   22.6204 H   0  0  0  0  0  0  0  0  0  0  0  0
    4.0699   27.7858   22.6048 H   0  0  0  0  0  0  0  0  0  0  0  0
    4.4920   28.9223   21.2510 H   0  0  0  0  0  0  0  0  0  0  0  0
    5.6451   29.0372   24.0212 H   0  0  0  0  0  0  0  0  0  0  0  0
   10.5552   29.7545   24.6747 H   0  0  0  0  0  0  0  0  0  0  0  0
    6.8108   32.9209   24.8239 H   0  0  0  0  0  0  0  0  0  0  0  0
    7.5290   33.4605   23.2683 H   0  0  0  0  0  0  0  0  0  0  0  0
    6.1093   32.3599   23.2683 H   0  0  0  0  0  0  0  0  0  0  0  0
   10.4410   33.0827   24.7422 H   0  0  0  0  0  0  0  0  0  0  0  0
   11.3336   32.8359   30.8091 H   0  0  0  0  0  0  0  0  0  0  0  0
   12.6769   34.9066   30.3119 H   0  0  0  0  0  0  0  0  0  0  0  0
   11.6909   34.5951   26.0936 H   0  0  0  0  0  0  0  0  0  0  0  0
    9.8016   30.9369   29.6426 H   0  0  0  0  0  0  0  0  0  0  0  0
    9.2433   27.3649   24.0726 H   0  0  0  0  0  0  0  0  0  0  0  0
    8.2892   27.5346   22.5601 H   0  0  0  0  0  0  0  0  0  0  0  0
   10.0464   27.9072   22.5601 H   0  0  0  0  0  0  0  0  0  0  0  0
  1  2  1  0
  2  3  1  0
  3  4  1  0
  4  5  1  0
  3  6  1  0
  6  7  1  0
  7  8  1  0
  8  9  1  0
  9 10  2  0
  9 11  1  0
 11 12  2  0
 12 13  1  0
 13 14  1  0
 14 15  2  0
 15 16  1  0
 14 17  1  0
 17 18  2  0
 18 19  1  0
 19 20  1  0
 20 21  2  0
 21 22  1  0
 22 23  2  0
 23 24  1  0
 23 25  1  0
 20 26  1  0
 26 27  1  0
 27 28  2  0
 12 29  1  0
 15 11  1  0
 27 18  1  0
 24 19  2  0
  1 30  1  0
  1 31  1  0
  1 32  1  0
  2 33  1  0
  2 34  1  0
  4 35  1  0
  4 36  1  0
  5 37  1  0
  5 38  1  0
  5 39  1  0
  6 40  1  0
  6 41  1  0
  7 42  1  0
  7 43  1  0
  8 44  1  0
 13 45  1  0
 16 46  1  0
 16 47  1  0
 16 48  1  0
 17 49  1  0
 21 50  1  0
 22 51  1  0
 24 52  1  0
 26 53  1  0
 29 54  1  0
 29 55  1  0
 29 56  1  0
M  END
