
     RDKit          3D

 40 41  0  0  0  0  0  0  0  0999 V2000
   10.2370   32.5810   27.1030 C   0  0  0  0  0  0  0  0  0  0  0  0
    9.9660   31.0790   27.0730 C   0  0  0  0  0  0  0  0  0  0  0  0
   10.8020   30.2800   28.0900 C   0  0  0  0  0  0  0  0  0  0  0  0
   10.4230   28.7960   28.1490 C   0  0  0  0  0  0  0  0  0  0  0  0
   11.6570   27.9110   27.9720 C   0  0  0  0  0  0  0  0  0  0  0  0
   12.4110   28.3280   26.7960 N   0  0  0  0  0  0  0  0  0  0  0  0
   10.0620   30.5240   25.7040 N   0  0  0  0  0  0  0  0  0  0  0  0
    8.9080   29.8980   25.1500 C   0  0  0  0  0  0  0  0  0  0  0  0
    9.0390   28.6410   24.5290 C   0  0  0  0  0  0  0  0  0  0  0  0
    7.8890   28.0440   23.9690 C   0  0  0  0  0  0  0  0  0  0  0  0
    6.6410   28.6910   24.0380 C   0  0  0  0  0  0  0  0  0  0  0  0
    6.5210   29.9270   24.6680 C   0  0  0  0  0  0  0  0  0  0  0  0
    7.6540   30.5200   25.2220 C   0  0  0  0  0  0  0  0  0  0  0  0
    5.3690   30.6480   24.8110 O   0  0  0  0  0  0  0  0  0  0  0  0
    4.2130   30.1690   24.1330 C   0  0  0  0  0  0  0  0  0  0  0  0
    8.0300   26.7960   23.3470 C   0  0  0  0  0  0  0  0  0  0  0  0
    9.2740   26.1800   23.2960 C   0  0  0  0  0  0  0  0  0  0  0  0
   10.3450   26.8370   23.8690 C   0  0  0  0  0  0  0  0  0  0  0  0
   10.2530   28.0410   24.4740 N   0  0  0  0  0  0  0  0  0  0  0  0
   10.2985   32.9217   28.1471 H   0  0  0  0  0  0  0  0  0  0  0  0
   11.1878   32.7923   26.5918 H   0  0  0  0  0  0  0  0  0  0  0  0
    9.4200   33.1113   26.5918 H   0  0  0  0  0  0  0  0  0  0  0  0
    8.9221   30.9591   27.3984 H   0  0  0  0  0  0  0  0  0  0  0  0
   11.8628   30.3592   27.8098 H   0  0  0  0  0  0  0  0  0  0  0  0
   10.6045   30.7079   29.0839 H   0  0  0  0  0  0  0  0  0  0  0  0
    9.9619   28.5804   29.1242 H   0  0  0  0  0  0  0  0  0  0  0  0
    9.7161   28.5809   27.3342 H   0  0  0  0  0  0  0  0  0  0  0  0
   12.2965   27.9968   28.8629 H   0  0  0  0  0  0  0  0  0  0  0  0
   11.3345   26.8676   27.8403 H   0  0  0  0  0  0  0  0  0  0  0  0
   13.2741   28.8053   27.0930 H   0  0  0  0  0  0  0  0  0  0  0  0
   12.6528   27.5007   26.2321 H   0  0  0  0  0  0  0  0  0  0  0  0
   10.9385   30.5885   25.1669 H   0  0  0  0  0  0  0  0  0  0  0  0
    5.7545   28.2171   23.5913 H   0  0  0  0  0  0  0  0  0  0  0  0
    7.5625   31.4940   25.7250 H   0  0  0  0  0  0  0  0  0  0  0  0
    3.4587   29.8565   24.8702 H   0  0  0  0  0  0  0  0  0  0  0  0
    3.7996   30.9699   23.5024 H   0  0  0  0  0  0  0  0  0  0  0  0
    4.4872   29.3104   23.5024 H   0  0  0  0  0  0  0  0  0  0  0  0
    7.1545   26.3037   22.8986 H   0  0  0  0  0  0  0  0  0  0  0  0
    9.4020   25.1994   22.8142 H   0  0  0  0  0  0  0  0  0  0  0  0
   11.3311   26.3511   23.8304 H   0  0  0  0  0  0  0  0  0  0  0  0
  1  2  1  0
  2  3  1  0
  3  4  1  0
  4  5  1  0
  5  6  1  0
  2  7  1  0
  7  8  1  0
  8  9  2  0
  9 10  1  0
 10 11  2  0
 11 12  1  0
 12 13  2  0
 12 14  1  0
 14 15  1  0
 10 16  1  0
 16 17  2  0
 17 18  1  0
 18 19  2  0
 13  8  1  0
 19  9  1  0
  1 20  1  0
  1 21  1  0
  1 22  1  0
  2 23  1  0
  3 24  1  0
  3 25  1  0
  4 26  1  0
  4 27  1  0
  5 28  1  0
  5 29  1  0
  6 30  1  0
  6 31  1  0
  7 32  1  0
 11 33  1  0
 13 34  1  0
 15 35  1  0
 15 36  1  0
 15 37  1  0
 16 38  1  0
 17 39  1  0
 18 40  1  0
M  END
