
     RDKit          3D

 62 64  0  0  0  0  0  0  0  0999 V2000
   61.8930  138.6910   89.5770 C   0  0  0  0  0  0  0  0  0  0  0  0
   60.9150  138.2650   90.6320 C   0  0  0  0  0  0  0  0  0  0  0  0
   61.3340  137.5400   91.7400 C   0  0  0  0  0  0  0  0  0  0  0  0
   62.6740  137.0460   92.1220 C   0  0  0  0  0  0  0  0  0  0  0  0
   62.4380  136.3410   93.3630 O   0  0  0  0  0  0  0  0  0  0  0  0
   61.1260  136.3930   93.7250 C   0  0  0  0  0  0  0  0  0  0  0  0
   60.6020  135.8870   94.7000 O   0  0  0  0  0  0  0  0  0  0  0  0
   60.4310  137.1600   92.7100 C   0  0  0  0  0  0  0  0  0  0  0  0
   59.0850  137.4720   92.6560 C   0  0  0  0  0  0  0  0  0  0  0  0
   58.6060  138.1690   91.5380 C   0  0  0  0  0  0  0  0  0  0  0  0
   59.5300  138.5270   90.5210 C   0  0  0  0  0  0  0  0  0  0  0  0
   59.0580  139.1970   89.4170 O   0  0  0  0  0  0  0  0  0  0  0  0
   58.7980  138.2880   88.3440 C   0  0  0  0  0  0  0  0  0  0  0  0
   57.1220  138.4540   91.3990 C   0  0  0  0  0  0  0  0  0  0  0  0
   56.7760  139.7890   92.0130 C   0  0  0  0  0  0  0  0  0  0  0  0
   55.6390  140.5020   91.8830 C   0  0  0  0  0  0  0  0  0  0  0  0
   54.4050  139.9960   91.1800 C   0  0  0  0  0  0  0  0  0  0  0  0
   55.5080  141.9350   92.3790 C   0  0  0  0  0  0  0  0  0  0  0  0
   54.9730  142.1480   93.7990 C   0  0  0  0  0  0  0  0  0  0  0  0
   53.4630  142.1910   93.8710 C   0  0  0  0  0  0  0  0  0  0  0  0
   52.7410  142.1020   92.8830 O   0  0  0  0  0  0  0  0  0  0  0  0
   53.0440  142.3620   95.1530 O   0  0  0  0  0  0  0  0  0  0  0  0
   53.8730  141.7840   96.1740 C   0  0  0  0  0  0  0  0  0  0  0  0
   53.2920  140.4340   96.6300 C   0  0  0  0  0  0  0  0  0  0  0  0
   53.2820  139.3850   95.5960 N   0  0  0  0  0  0  0  0  0  0  0  0
   52.0150  138.6250   95.6350 C   0  0  0  0  0  0  0  0  0  0  0  0
   52.1490  137.2670   94.9280 C   0  0  0  0  0  0  0  0  0  0  0  0
   53.0830  136.3950   95.5810 O   0  0  0  0  0  0  0  0  0  0  0  0
   54.1160  137.1020   96.2810 C   0  0  0  0  0  0  0  0  0  0  0  0
   54.4440  138.4720   95.6660 C   0  0  0  0  0  0  0  0  0  0  0  0
   58.2300  137.1060   93.6570 O   0  0  0  0  0  0  0  0  0  0  0  0
   62.8006  139.0863   90.0566 H   0  0  0  0  0  0  0  0  0  0  0  0
   62.1564  137.8261   88.9505 H   0  0  0  0  0  0  0  0  0  0  0  0
   61.4391  139.4729   88.9505 H   0  0  0  0  0  0  0  0  0  0  0  0
   63.0752  136.3670   91.3552 H   0  0  0  0  0  0  0  0  0  0  0  0
   63.4133  137.8541   92.2244 H   0  0  0  0  0  0  0  0  0  0  0  0
   58.5174  137.3068   88.7545 H   0  0  0  0  0  0  0  0  0  0  0  0
   57.9748  138.6760   87.7261 H   0  0  0  0  0  0  0  0  0  0  0  0
   59.7018  138.1820   87.7261 H   0  0  0  0  0  0  0  0  0  0  0  0
   56.8551  138.4671   90.3320 H   0  0  0  0  0  0  0  0  0  0  0  0
   56.5598  137.6670   91.9230 H   0  0  0  0  0  0  0  0  0  0  0  0
   57.5525  140.2386   92.6493 H   0  0  0  0  0  0  0  0  0  0  0  0
   53.6575  139.6895   91.9265 H   0  0  0  0  0  0  0  0  0  0  0  0
   53.9879  140.7957   90.5503 H   0  0  0  0  0  0  0  0  0  0  0  0
   54.6693  139.1337   90.5503 H   0  0  0  0  0  0  0  0  0  0  0  0
   56.5073  142.3923   92.3318 H   0  0  0  0  0  0  0  0  0  0  0  0
   54.7501  142.3892   91.7238 H   0  0  0  0  0  0  0  0  0  0  0  0
   55.3291  141.3229   94.4333 H   0  0  0  0  0  0  0  0  0  0  0  0
   55.3427  143.1254   94.1424 H   0  0  0  0  0  0  0  0  0  0  0  0
   54.8857  141.6272   95.7741 H   0  0  0  0  0  0  0  0  0  0  0  0
   53.9107  142.4675   97.0351 H   0  0  0  0  0  0  0  0  0  0  0  0
   53.8915  140.0725   97.4784 H   0  0  0  0  0  0  0  0  0  0  0  0
   52.2400  140.6218   96.8908 H   0  0  0  0  0  0  0  0  0  0  0  0
   51.7327  138.4550   96.6845 H   0  0  0  0  0  0  0  0  0  0  0  0
   51.2454  139.2113   95.1117 H   0  0  0  0  0  0  0  0  0  0  0  0
   51.1632  136.7792   94.9122 H   0  0  0  0  0  0  0  0  0  0  0  0
   52.5242  137.4561   93.9114 H   0  0  0  0  0  0  0  0  0  0  0  0
   53.7904  137.2556   97.3204 H   0  0  0  0  0  0  0  0  0  0  0  0
   55.0283  136.4908   96.2165 H   0  0  0  0  0  0  0  0  0  0  0  0
   55.2245  138.9492   96.2768 H   0  0  0  0  0  0  0  0  0  0  0  0
   54.7733  138.2903   94.6323 H   0  0  0  0  0  0  0  0  0  0  0  0
   57.2698  137.3397   93.5980 H   0  0  0  0  0  0  0  0  0  0  0  0
  1  2  1  0
  2  3  2  0
  3  4  1  0
  4  5  1  0
  5  6  1  0
  6  7  2  0
  6  8  1  0
  8  9  2  0
  9 10  1  0
 10 11  2  0
 11 12  1  0
 12 13  1  0
 10 14  1  0
 14 15  1  0
 15 16  2  0
 16 17  1  0
 16 18  1  0
 18 19  1  0
 19 20  1  0
 20 21  2  0
 20 22  1  0
 22 23  1  0
 23 24  1  0
 24 25  1  0
 25 26  1  0
 26 27  1  0
 27 28  1  0
 28 29  1  0
 29 30  1  0
  9 31  1  0
 11  2  1  0
  8  3  1  0
 30 25  1  0
  1 32  1  0
  1 33  1  0
  1 34  1  0
  4 35  1  0
  4 36  1  0
 13 37  1  0
 13 38  1  0
 13 39  1  0
 14 40  1  0
 14 41  1  0
 15 42  1  0
 17 43  1  0
 17 44  1  0
 17 45  1  0
 18 46  1  0
 18 47  1  0
 19 48  1  0
 19 49  1  0
 23 50  1  0
 23 51  1  0
 24 52  1  0
 24 53  1  0
 26 54  1  0
 26 55  1  0
 27 56  1  0
 27 57  1  0
 29 58  1  0
 29 59  1  0
 30 60  1  0
 30 61  1  0
 31 62  1  0
M  END
