
     RDKit          3D

 60 63  0  0  0  0  0  0  0  0999 V2000
   60.7150  141.9380   85.8150 C   0  0  0  0  0  0  0  0  0  0  0  0
   60.6900  141.3040   87.1480 N   0  0  0  0  0  0  0  0  0  0  0  0
   60.3600  142.3620   88.1230 C   0  0  0  0  0  0  0  0  0  0  0  0
   59.7050  140.1790   87.2150 C   0  0  2  0  0  0  0  0  0  0  0  0
   59.3970  139.7530   88.6750 C   0  0  1  0  0  0  0  0  0  0  0  0
   58.2050  138.7730   88.7500 C   0  0  0  0  0  0  0  0  0  0  0  0
   57.8650  138.3620   90.1920 C   0  0  2  0  0  0  0  0  0  0  0  0
   56.8610  139.3130   90.8530 C   0  0  0  0  0  0  0  0  0  0  0  0
   56.4710  138.8350   92.2380 C   0  0  0  0  0  0  0  0  0  0  0  0
   55.2090  139.1290   92.8010 C   0  0  0  0  0  0  0  0  0  0  0  0
   54.8970  138.5950   94.0660 C   0  0  0  0  0  0  0  0  0  0  0  0
   55.8060  137.8270   94.7900 C   0  0  0  0  0  0  0  0  0  0  0  0
   57.0630  137.5830   94.2610 C   0  0  0  0  0  0  0  0  0  0  0  0
   57.4050  138.0770   92.9940 C   0  0  0  0  0  0  0  0  0  0  0  0
   58.7750  137.8210   92.4700 C   0  0  0  0  0  0  0  0  0  0  0  0
   59.0700  138.2530   91.0750 C   0  0  0  0  0  0  0  0  0  0  0  0
   60.3280  138.5650   90.7040 C   0  0  0  0  0  0  0  0  0  0  0  0
   61.4060  138.4350   91.5720 O   0  0  0  0  0  0  0  0  0  0  0  0
   60.6650  139.1640   89.3380 C   0  0  1  0  0  0  0  0  0  0  0  0
   61.3350  138.0720   88.4540 C   0  0  0  0  0  0  0  0  0  0  0  0
   60.9570  137.9770   87.0060 C   0  0  0  0  0  0  0  0  0  0  0  0
   60.1990  138.9520   86.4550 C   0  0  0  0  0  0  0  0  0  0  0  0
   59.7500  138.9240   85.1380 O   0  0  0  0  0  0  0  0  0  0  0  0
   61.3840  136.8310   86.1450 C   0  0  0  0  0  0  0  0  0  0  0  0
   60.5720  136.0360   85.6770 O   0  0  0  0  0  0  0  0  0  0  0  0
   62.7100  136.6910   85.9020 N   0  0  0  0  0  0  0  0  0  0  0  0
   62.1780  137.2800   88.8930 O   0  0  0  0  0  0  0  0  0  0  0  0
   61.5900  140.2370   89.5580 O   0  0  0  0  0  0  0  0  0  0  0  0
   59.6360  137.2930   93.1710 O   0  0  0  0  0  0  0  0  0  0  0  0
   57.9110  136.8480   95.0440 O   0  0  0  0  0  0  0  0  0  0  0  0
   54.2170  139.9160   92.2090 N   0  0  0  0  0  0  0  0  0  0  0  0
   54.1730  141.2950   92.6870 C   0  0  0  0  0  0  0  0  0  0  0  0
   52.9430  139.2910   91.8790 C   0  0  0  0  0  0  0  0  0  0  0  0
   60.7581  143.0312   85.9297 H   0  0  0  0  0  0  0  0  0  0  0  0
   61.6002  141.5922   85.2611 H   0  0  0  0  0  0  0  0  0  0  0  0
   59.8053  141.6630   85.2611 H   0  0  0  0  0  0  0  0  0  0  0  0
   60.4820  141.9709   89.1438 H   0  0  0  0  0  0  0  0  0  0  0  0
   61.0334  143.2192   87.9759 H   0  0  0  0  0  0  0  0  0  0  0  0
   59.3186  142.6844   87.9759 H   0  0  0  0  0  0  0  0  0  0  0  0
   58.7859  140.5629   86.7482 H   0  0  0  0  0  0  0  0  0  0  0  0
   59.0984  140.6502   89.2371 H   0  0  0  0  0  0  0  0  0  0  0  0
   57.3231  139.2567   88.3047 H   0  0  0  0  0  0  0  0  0  0  0  0
   58.4888  137.8619   88.2028 H   0  0  0  0  0  0  0  0  0  0  0  0
   57.4116  137.3649   90.0906 H   0  0  0  0  0  0  0  0  0  0  0  0
   57.3149  140.3117   90.9343 H   0  0  0  0  0  0  0  0  0  0  0  0
   55.9544  139.3441   90.2309 H   0  0  0  0  0  0  0  0  0  0  0  0
   53.9037  138.7906   94.4962 H   0  0  0  0  0  0  0  0  0  0  0  0
   55.5284  137.4180   95.7727 H   0  0  0  0  0  0  0  0  0  0  0  0
   63.0467  135.9153   85.3140 H   0  0  0  0  0  0  0  0  0  0  0  0
   63.3810  137.3604   86.3053 H   0  0  0  0  0  0  0  0  0  0  0  0
   62.5784  136.6009   88.2941 H   0  0  0  0  0  0  0  0  0  0  0  0
   61.7094  140.3755   90.5310 H   0  0  0  0  0  0  0  0  0  0  0  0
   60.5414  137.1309   92.8049 H   0  0  0  0  0  0  0  0  0  0  0  0
   58.8241  136.6387   94.7237 H   0  0  0  0  0  0  0  0  0  0  0  0
   54.1728  141.3020   93.7870 H   0  0  0  0  0  0  0  0  0  0  0  0
   55.0542  141.8396   92.3171 H   0  0  0  0  0  0  0  0  0  0  0  0
   53.2588  141.7823   92.3171 H   0  0  0  0  0  0  0  0  0  0  0  0
   52.4115  139.0302   92.8061 H   0  0  0  0  0  0  0  0  0  0  0  0
   52.3322  139.9918   91.2909 H   0  0  0  0  0  0  0  0  0  0  0  0
   53.1234  138.3791   91.2909 H   0  0  0  0  0  0  0  0  0  0  0  0
  1  2  1  0
  2  3  1  0
  2  4  1  0
  4  5  1  0
  5  6  1  0
  6  7  1  0
  7  8  1  0
  8  9  1  0
  9 10  2  0
 10 11  1  0
 11 12  2  0
 12 13  1  0
 13 14  2  0
 14 15  1  0
 15 16  2  0
 16 17  1  0
 17 18  2  0
 17 19  1  0
 19 20  1  0
 20 21  2  0
 21 22  1  0
 22 23  2  0
 21 24  1  0
 24 25  2  0
 24 26  1  0
 20 27  1  0
 19 28  1  6
 15 29  1  0
 13 30  1  0
 10 31  1  0
 31 32  1  0
 31 33  1  0
 22  4  1  0
 19  5  1  0
 16  7  1  0
 14  9  1  0
  1 34  1  0
  1 35  1  0
  1 36  1  0
  3 37  1  0
  3 38  1  0
  3 39  1  0
  4 40  1  1
  5 41  1  6
  6 42  1  0
  6 43  1  0
  7 44  1  6
  8 45  1  0
  8 46  1  0
 11 47  1  0
 12 48  1  0
 26 49  1  0
 26 50  1  0
 27 51  1  0
 28 52  1  0
 29 53  1  0
 30 54  1  0
 32 55  1  0
 32 56  1  0
 32 57  1  0
 33 58  1  0
 33 59  1  0
 33 60  1  0
M  END
