
     RDKit          3D

 62 65  0  0  0  0  0  0  0  0999 V2000
    9.7000   27.1640   22.2120 C   0  0  0  0  0  0  0  0  0  0  0  0
    8.2240   27.5110   22.5480 C   0  0  0  0  0  0  0  0  0  0  0  0
    7.7840   26.4750   23.6080 C   0  0  0  0  0  0  0  0  0  0  0  0
    7.4290   27.2980   21.2440 C   0  0  0  0  0  0  0  0  0  0  0  0
    8.0280   28.9570   23.0740 C   0  0  0  0  0  0  0  0  0  0  0  0
    7.3580   29.9220   22.2870 C   0  0  0  0  0  0  0  0  0  0  0  0
    7.1950   31.2660   22.6760 C   0  0  0  0  0  0  0  0  0  0  0  0
    7.7490   31.6530   23.8980 C   0  0  0  0  0  0  0  0  0  0  0  0
    8.4200   30.7440   24.7390 C   0  0  0  0  0  0  0  0  0  0  0  0
    8.5070   29.3880   24.3350 C   0  0  0  0  0  0  0  0  0  0  0  0
    9.1260   28.4640   25.1450 O   0  0  0  0  0  0  0  0  0  0  0  0
   10.5530   28.5390   25.0750 C   0  0  0  0  0  0  0  0  0  0  0  0
    9.0330   31.2590   25.9790 C   0  0  0  0  0  0  0  0  0  0  0  0
    9.9580   32.3160   25.9450 C   0  0  0  0  0  0  0  0  0  0  0  0
   10.5480   32.8160   27.1190 C   0  0  0  0  0  0  0  0  0  0  0  0
   10.2100   32.2400   28.3640 C   0  0  0  0  0  0  0  0  0  0  0  0
    9.2920   31.1800   28.4010 C   0  0  0  0  0  0  0  0  0  0  0  0
    8.7150   30.6960   27.2230 C   0  0  0  0  0  0  0  0  0  0  0  0
   10.7940   32.7410   29.5380 C   0  0  0  0  0  0  0  0  0  0  0  0
   11.7130   33.7880   29.4780 C   0  0  0  0  0  0  0  0  0  0  0  0
   12.0420   34.3670   28.2550 C   0  0  0  0  0  0  0  0  0  0  0  0
   11.4650   33.8790   27.0810 C   0  0  0  0  0  0  0  0  0  0  0  0
   12.2640   34.3130   30.6840 N   0  0  0  0  0  0  0  0  0  0  0  0
   11.2130   35.1700   31.7000 S   0  0  0  0  0  0  0  0  0  0  0  0
   10.6490   34.2910   32.7000 O   0  0  0  0  0  0  0  0  0  0  0  0
   10.3670   35.9390   30.8110 O   0  0  0  0  0  0  0  0  0  0  0  0
   12.3370   36.3040   32.4850 C   0  0  0  0  0  0  0  0  0  0  0  0
    6.4730   32.1990   21.8330 N   0  0  0  0  0  0  0  0  0  0  0  0
    5.1040   32.0570   21.6240 C   0  0  0  0  0  0  0  0  0  0  0  0
    4.3920   32.8640   20.8360 C   0  0  0  0  0  0  0  0  0  0  0  0
    5.0700   33.9650   20.1500 C   0  0  0  0  0  0  0  0  0  0  0  0
    4.4740   34.6850   19.3590 O   0  0  0  0  0  0  0  0  0  0  0  0
    6.3870   34.1170   20.4570 N   0  0  0  0  0  0  0  0  0  0  0  0
    7.1630   33.2580   21.2000 C   0  0  0  0  0  0  0  0  0  0  0  0
    8.3760   33.4600   21.2180 O   0  0  0  0  0  0  0  0  0  0  0  0
   10.2669   27.0307   23.1452 H   0  0  0  0  0  0  0  0  0  0  0  0
    9.7337   26.2334   21.6264 H   0  0  0  0  0  0  0  0  0  0  0  0
   10.1448   27.9821   21.6264 H   0  0  0  0  0  0  0  0  0  0  0  0
    7.9576   26.8838   24.6144 H   0  0  0  0  0  0  0  0  0  0  0  0
    6.7140   26.2532   23.4819 H   0  0  0  0  0  0  0  0  0  0  0  0
    8.3674   25.5510   23.4819 H   0  0  0  0  0  0  0  0  0  0  0  0
    6.3928   27.0204   21.4875 H   0  0  0  0  0  0  0  0  0  0  0  0
    7.4311   28.2284   20.6572 H   0  0  0  0  0  0  0  0  0  0  0  0
    7.8960   26.4933   20.6572 H   0  0  0  0  0  0  0  0  0  0  0  0
    6.9417   29.6062   21.3190 H   0  0  0  0  0  0  0  0  0  0  0  0
    7.6584   32.7026   24.2143 H   0  0  0  0  0  0  0  0  0  0  0  0
   10.9694   28.5609   26.0929 H   0  0  0  0  0  0  0  0  0  0  0  0
   10.9405   27.6600   24.5391 H   0  0  0  0  0  0  0  0  0  0  0  0
   10.8462   29.4538   24.5391 H   0  0  0  0  0  0  0  0  0  0  0  0
   10.2270   32.7630   24.9766 H   0  0  0  0  0  0  0  0  0  0  0  0
    9.0235   30.7252   29.3659 H   0  0  0  0  0  0  0  0  0  0  0  0
    8.0008   29.8609   27.2730 H   0  0  0  0  0  0  0  0  0  0  0  0
   10.5250   32.3050   30.5114 H   0  0  0  0  0  0  0  0  0  0  0  0
   12.7533   35.2051   28.2141 H   0  0  0  0  0  0  0  0  0  0  0  0
   11.7318   34.3324   26.1150 H   0  0  0  0  0  0  0  0  0  0  0  0
   13.2558   34.1774   30.9265 H   0  0  0  0  0  0  0  0  0  0  0  0
   12.2465   36.2127   33.5775 H   0  0  0  0  0  0  0  0  0  0  0  0
   13.3676   36.0679   32.1814 H   0  0  0  0  0  0  0  0  0  0  0  0
   12.0918   37.3325   32.1814 H   0  0  0  0  0  0  0  0  0  0  0  0
    4.5816   31.2355   22.1360 H   0  0  0  0  0  0  0  0  0  0  0  0
    3.3117   32.7045   20.7037 H   0  0  0  0  0  0  0  0  0  0  0  0
    6.8507   34.9627   20.0956 H   0  0  0  0  0  0  0  0  0  0  0  0
  1  2  1  0
  2  3  1  0
  2  4  1  0
  2  5  1  0
  5  6  2  0
  6  7  1  0
  7  8  2  0
  8  9  1  0
  9 10  2  0
 10 11  1  0
 11 12  1  0
  9 13  1  0
 13 14  2  0
 14 15  1  0
 15 16  2  0
 16 17  1  0
 17 18  2  0
 16 19  1  0
 19 20  2  0
 20 21  1  0
 21 22  2  0
 20 23  1  0
 23 24  1  0
 24 25  2  0
 24 26  2  0
 24 27  1  0
  7 28  1  0
 28 29  1  0
 29 30  2  0
 30 31  1  0
 31 32  2  0
 31 33  1  0
 33 34  1  0
 34 35  2  0
 10  5  1  0
 18 13  1  0
 22 15  1  0
 34 28  1  0
  1 36  1  0
  1 37  1  0
  1 38  1  0
  3 39  1  0
  3 40  1  0
  3 41  1  0
  4 42  1  0
  4 43  1  0
  4 44  1  0
  6 45  1  0
  8 46  1  0
 12 47  1  0
 12 48  1  0
 12 49  1  0
 14 50  1  0
 17 51  1  0
 18 52  1  0
 19 53  1  0
 21 54  1  0
 22 55  1  0
 23 56  1  0
 27 57  1  0
 27 58  1  0
 27 59  1  0
 29 60  1  0
 30 61  1  0
 33 62  1  0
M  END
