
     RDKit          3D

 82 84  0  0  0  0  0  0  0  0999 V2000
   52.9680  137.9030   98.0010 C   0  0  0  0  0  0  0  0  0  0  0  0
   53.4610  138.5470   96.7260 C   0  0  0  0  0  0  0  0  0  0  0  0
   53.2390  140.0460   96.5780 C   0  0  2  0  0  0  0  0  0  0  0  0
   52.4000  139.0970   95.7800 C   0  0  1  0  0  0  0  0  0  0  0  0
   52.6080  139.4160   94.3140 C   0  0  2  0  0  0  0  0  0  0  0  0
   53.7290  140.3630   94.3090 N   0  0  0  0  0  0  0  0  0  0  0  0
   53.9850  140.9280   95.6240 C   0  0  0  0  0  0  0  0  0  0  0  0
   54.4020  140.8500   93.2110 C   0  0  0  0  0  0  0  0  0  0  0  0
   55.1980  141.7910   93.3190 O   0  0  0  0  0  0  0  0  0  0  0  0
   54.1540  140.2120   91.8170 C   0  0  2  0  0  0  0  0  0  0  0  0
   54.3850  138.6680   91.7820 C   0  0  0  0  0  0  0  0  0  0  0  0
   53.0480  137.9160   91.9130 C   0  0  0  0  0  0  0  0  0  0  0  0
   55.3300  138.1740   92.8950 C   0  0  0  0  0  0  0  0  0  0  0  0
   55.0070  138.2850   90.4190 C   0  0  0  0  0  0  0  0  0  0  0  0
   55.0660  140.9110   90.9060 N   0  0  0  0  0  0  0  0  0  0  0  0
   56.4250  140.8050   91.0550 C   0  0  0  0  0  0  0  0  0  0  0  0
   56.9680  140.3070   92.0300 O   0  0  0  0  0  0  0  0  0  0  0  0
   57.0720  141.3500   89.9770 N   0  0  0  0  0  0  0  0  0  0  0  0
   58.5330  141.3940   89.8220 C   0  0  0  0  0  0  0  0  0  0  0  0
   59.1990  142.0580   91.0370 C   0  0  0  0  0  0  0  0  0  0  0  0
   58.8510  142.2310   88.5700 C   0  0  0  0  0  0  0  0  0  0  0  0
   59.1030  139.9820   89.6090 C   0  0  0  0  0  0  0  0  0  0  0  0
   51.3290  140.0850   93.7440 C   0  0  0  0  0  0  0  0  0  0  0  0
   51.3410  140.9190   92.8420 O   0  0  0  0  0  0  0  0  0  0  0  0
   50.1710  139.7130   94.3960 N   0  0  0  0  0  0  0  0  0  0  0  0
   48.8700  140.2920   94.0120 C   0  0  0  0  0  0  0  0  0  0  0  0
   47.9480  139.1380   93.6000 C   0  0  0  0  0  0  0  0  0  0  0  0
   48.6050  137.7890   93.3230 C   0  0  0  0  0  0  0  0  0  0  0  0
   47.7990  136.4650   93.3460 C   0  0  0  0  0  0  0  0  0  0  0  0
   48.8120  135.9170   92.3170 C   0  0  0  0  0  0  0  0  0  0  0  0
   49.0920  137.3800   91.9080 C   0  0  0  0  0  0  0  0  0  0  0  0
   48.3840  141.0070   95.2660 C   0  0  0  0  0  0  0  0  0  0  0  0
   47.6380  141.9870   95.2570 O   0  0  0  0  0  0  0  0  0  0  0  0
   48.8130  140.4170   96.6140 C   0  0  0  0  0  0  0  0  0  0  0  0
   48.5930  139.2590   96.9190 O   0  0  0  0  0  0  0  0  0  0  0  0
   49.4880  141.2930   97.4210 N   0  0  0  0  0  0  0  0  0  0  0  0
   54.7060  137.8980   96.1830 C   0  0  0  0  0  0  0  0  0  0  0  0
   53.3803  138.4416   98.8670 H   0  0  0  0  0  0  0  0  0  0  0  0
   51.8693  137.9453   98.0321 H   0  0  0  0  0  0  0  0  0  0  0  0
   53.2956  136.8534   98.0321 H   0  0  0  0  0  0  0  0  0  0  0  0
   53.1774  140.8066   97.3703 H   0  0  0  0  0  0  0  0  0  0  0  0
   51.3689  138.7392   95.6425 H   0  0  0  0  0  0  0  0  0  0  0  0
   52.8111  138.5261   93.7002 H   0  0  0  0  0  0  0  0  0  0  0  0
   55.0620  140.9149   95.8472 H   0  0  0  0  0  0  0  0  0  0  0  0
   53.6614  141.9771   95.6926 H   0  0  0  0  0  0  0  0  0  0  0  0
   53.0987  140.3269   91.5287 H   0  0  0  0  0  0  0  0  0  0  0  0
   52.8065  137.7802   92.9775 H   0  0  0  0  0  0  0  0  0  0  0  0
   52.2508  138.4981   91.4275 H   0  0  0  0  0  0  0  0  0  0  0  0
   53.1314  136.9325   91.4275 H   0  0  0  0  0  0  0  0  0  0  0  0
   54.8911  138.4034   93.8772 H   0  0  0  0  0  0  0  0  0  0  0  0
   55.4705  137.0871   92.8010 H   0  0  0  0  0  0  0  0  0  0  0  0
   56.3027  138.6790   92.8010 H   0  0  0  0  0  0  0  0  0  0  0  0
   55.9328  137.7149   90.5857 H   0  0  0  0  0  0  0  0  0  0  0  0
   54.2944  137.6690   89.8509 H   0  0  0  0  0  0  0  0  0  0  0  0
   55.2362  139.1986   89.8509 H   0  0  0  0  0  0  0  0  0  0  0  0
   54.6811  141.4886   90.1450 H   0  0  0  0  0  0  0  0  0  0  0  0
   56.4963  141.7558   89.2254 H   0  0  0  0  0  0  0  0  0  0  0  0
   58.7772  141.6374   91.9617 H   0  0  0  0  0  0  0  0  0  0  0  0
   60.2825  141.8699   91.0096 H   0  0  0  0  0  0  0  0  0  0  0  0
   59.0142  143.1420   91.0096 H   0  0  0  0  0  0  0  0  0  0  0  0
   59.2264  143.2190   88.8750 H   0  0  0  0  0  0  0  0  0  0  0  0
   59.6165  141.7171   87.9701 H   0  0  0  0  0  0  0  0  0  0  0  0
   57.9374  142.3551   87.9701 H   0  0  0  0  0  0  0  0  0  0  0  0
   59.2927  139.5120   90.5853 H   0  0  0  0  0  0  0  0  0  0  0  0
   58.3792  139.3757   89.0447 H   0  0  0  0  0  0  0  0  0  0  0  0
   60.0449  140.0481   89.0447 H   0  0  0  0  0  0  0  0  0  0  0  0
   50.2158  139.0231   95.1595 H   0  0  0  0  0  0  0  0  0  0  0  0
   48.9097  140.9936   93.1657 H   0  0  0  0  0  0  0  0  0  0  0  0
   47.2184  138.9913   94.4100 H   0  0  0  0  0  0  0  0  0  0  0  0
   47.5169  139.4480   92.6367 H   0  0  0  0  0  0  0  0  0  0  0  0
   49.3152  138.0496   94.1215 H   0  0  0  0  0  0  0  0  0  0  0  0
   47.7996  135.9432   94.3144 H   0  0  0  0  0  0  0  0  0  0  0  0
   46.7147  136.4420   93.1623 H   0  0  0  0  0  0  0  0  0  0  0  0
   49.6726  135.3914   92.7565 H   0  0  0  0  0  0  0  0  0  0  0  0
   48.5275  135.1550   91.5764 H   0  0  0  0  0  0  0  0  0  0  0  0
   50.1487  137.6058   91.7022 H   0  0  0  0  0  0  0  0  0  0  0  0
   48.6631  137.8206   90.9959 H   0  0  0  0  0  0  0  0  0  0  0  0
   49.8179  140.9894   98.3483 H   0  0  0  0  0  0  0  0  0  0  0  0
   49.6659  142.2557   97.1009 H   0  0  0  0  0  0  0  0  0  0  0  0
   55.3410  137.5670   97.0180 H   0  0  0  0  0  0  0  0  0  0  0  0
   54.4282  137.0300   95.5671 H   0  0  0  0  0  0  0  0  0  0  0  0
   55.2586  138.6228   95.5671 H   0  0  0  0  0  0  0  0  0  0  0  0
  1  2  1  0
  2  3  1  0
  3  4  1  0
  4  5  1  0
  5  6  1  0
  6  7  1  0
  6  8  1  0
  8  9  2  0
  8 10  1  0
 10 11  1  0
 11 12  1  0
 11 13  1  0
 11 14  1  0
 10 15  1  0
 15 16  1  0
 16 17  2  0
 16 18  1  0
 18 19  1  0
 19 20  1  0
 19 21  1  0
 19 22  1  0
  5 23  1  0
 23 24  2  0
 23 25  1  0
 25 26  1  0
 26 27  1  0
 27 28  1  0
 28 29  1  0
 29 30  1  0
 30 31  1  0
 26 32  1  0
 32 33  2  0
 32 34  1  0
 34 35  2  0
 34 36  1  0
  2 37  1  0
  4  2  1  0
  7  3  1  0
 31 28  1  0
  1 38  1  0
  1 39  1  0
  1 40  1  0
  3 41  1  1
  4 42  1  1
  5 43  1  6
  7 44  1  0
  7 45  1  0
 10 46  1  6
 12 47  1  0
 12 48  1  0
 12 49  1  0
 13 50  1  0
 13 51  1  0
 13 52  1  0
 14 53  1  0
 14 54  1  0
 14 55  1  0
 15 56  1  0
 18 57  1  0
 20 58  1  0
 20 59  1  0
 20 60  1  0
 21 61  1  0
 21 62  1  0
 21 63  1  0
 22 64  1  0
 22 65  1  0
 22 66  1  0
 25 67  1  0
 26 68  1  0
 27 69  1  0
 27 70  1  0
 28 71  1  0
 29 72  1  0
 29 73  1  0
 30 74  1  0
 30 75  1  0
 31 76  1  0
 31 77  1  0
 36 78  1  0
 36 79  1  0
 37 80  1  0
 37 81  1  0
 37 82  1  0
M  END
