
     RDKit          3D

 31 32  0  0  0  0  0  0  0  0999 V2000
    5.5890   31.5690   23.5410 C   0  0  0  0  0  0  0  0  0  0  0  0
    4.1030   31.7590   23.3660 C   0  0  1  0  0  0  0  0  0  0  0  0
    3.5520   30.3500   23.5810 C   0  0  2  0  0  0  0  0  0  0  0  0
    4.5240   29.6230   24.3800 O   0  0  0  0  0  0  0  0  0  0  0  0
    5.6340   30.5040   24.6320 C   0  0  1  0  0  0  0  0  0  0  0  0
    6.8960   29.7710   24.6530 N   0  0  0  0  0  0  0  0  0  0  0  0
    7.1290   28.6950   23.8170 C   0  0  0  0  0  0  0  0  0  0  0  0
    8.2890   28.0270   23.8090 C   0  0  0  0  0  0  0  0  0  0  0  0
    9.3530   28.4660   24.7210 C   0  0  0  0  0  0  0  0  0  0  0  0
   10.4500   27.9240   24.7660 O   0  0  0  0  0  0  0  0  0  0  0  0
    9.0500   29.5350   25.5180 N   0  0  0  0  0  0  0  0  0  0  0  0
    7.8760   30.2420   25.5190 C   0  0  0  0  0  0  0  0  0  0  0  0
    7.7450   31.2300   26.2380 O   0  0  0  0  0  0  0  0  0  0  0  0
    8.6150   26.8660   22.9510 C   0  0  0  0  0  0  0  0  0  0  0  0
    8.6970   25.7050   23.6450 F   0  0  0  0  0  0  0  0  0  0  0  0
    7.6580   26.6670   22.0010 F   0  0  0  0  0  0  0  0  0  0  0  0
    9.7780   27.0270   22.2730 F   0  0  0  0  0  0  0  0  0  0  0  0
    3.3860   29.5770   22.2710 C   0  0  0  0  0  0  0  0  0  0  0  0
    2.5440   28.4430   22.4780 O   0  0  0  0  0  0  0  0  0  0  0  0
    3.6210   32.6260   24.3930 O   0  0  0  0  0  0  0  0  0  0  0  0
    6.0605   31.2135   22.6130 H   0  0  0  0  0  0  0  0  0  0  0  0
    6.1322   32.4918   23.7929 H   0  0  0  0  0  0  0  0  0  0  0  0
    3.8182   32.1963   22.3977 H   0  0  0  0  0  0  0  0  0  0  0  0
    2.5657   30.4393   24.0597 H   0  0  0  0  0  0  0  0  0  0  0  0
    5.5616   30.9749   25.6235 H   0  0  0  0  0  0  0  0  0  0  0  0
    6.3301   28.3753   23.1317 H   0  0  0  0  0  0  0  0  0  0  0  0
    9.7755   29.8388   26.1830 H   0  0  0  0  0  0  0  0  0  0  0  0
    2.9325   30.2345   21.5147 H   0  0  0  0  0  0  0  0  0  0  0  0
    4.3729   29.2362   21.9246 H   0  0  0  0  0  0  0  0  0  0  0  0
    2.4300   28.2895   23.4494 H   0  0  0  0  0  0  0  0  0  0  0  0
    3.8358   32.2396   25.2788 H   0  0  0  0  0  0  0  0  0  0  0  0
  1  2  1  0
  2  3  1  0
  3  4  1  0
  4  5  1  0
  5  6  1  0
  6  7  1  0
  7  8  2  0
  8  9  1  0
  9 10  2  0
  9 11  1  0
 11 12  1  0
 12 13  2  0
  8 14  1  0
 14 15  1  0
 14 16  1  0
 14 17  1  0
  3 18  1  0
 18 19  1  0
  2 20  1  0
  5  1  1  0
 12  6  1  0
  1 21  1  0
  1 22  1  0
  2 23  1  6
  3 24  1  1
  5 25  1  1
  7 26  1  0
 11 27  1  0
 18 28  1  0
 18 29  1  0
 19 30  1  0
 20 31  1  0
M  END
