
     RDKit          3D

 49 52  0  0  0  0  0  0  0  0999 V2000
   11.4030   32.5880   29.8930 C   0  0  0  0  0  0  0  0  0  0  0  0
   10.5780   32.3170   28.7240 N   0  0  0  0  0  0  0  0  0  0  0  0
   10.7830   33.3250   27.6680 C   0  0  0  0  0  0  0  0  0  0  0  0
   10.4130   32.8620   26.2300 C   0  0  0  0  0  0  0  0  0  0  0  0
    9.3920   31.8070   26.2120 N   0  0  0  0  0  0  0  0  0  0  0  0
    9.8460   30.6420   27.0040 C   0  0  0  0  0  0  0  0  0  0  0  0
   10.7870   30.9670   28.1950 C   0  0  0  0  0  0  0  0  0  0  0  0
    8.9710   31.3970   24.8680 C   0  0  0  0  0  0  0  0  0  0  0  0
    7.4490   31.4130   24.6830 C   0  0  0  0  0  0  0  0  0  0  0  0
    6.8440   30.0730   25.1230 C   0  0  0  0  0  0  0  0  0  0  0  0
    6.5310   29.2000   23.9670 N   0  0  0  0  0  0  0  0  0  0  0  0
    5.2460   29.3490   23.3690 C   0  0  0  0  0  0  0  0  0  0  0  0
    4.1780   30.0010   24.0280 C   0  0  0  0  0  0  0  0  0  0  0  0
    2.9080   30.1430   23.4540 C   0  0  0  0  0  0  0  0  0  0  0  0
    2.6570   29.6300   22.1940 C   0  0  0  0  0  0  0  0  0  0  0  0
    3.6790   28.9760   21.5160 C   0  0  0  0  0  0  0  0  0  0  0  0
    4.9580   28.8280   22.0910 C   0  0  0  0  0  0  0  0  0  0  0  0
    6.1530   27.9920   21.0780 S   0  0  0  0  0  0  0  0  0  0  0  0
    7.5060   27.7560   22.2060 C   0  0  0  0  0  0  0  0  0  0  0  0
    7.5800   28.3670   23.4750 C   0  0  0  0  0  0  0  0  0  0  0  0
    8.7380   28.0860   24.2360 C   0  0  0  0  0  0  0  0  0  0  0  0
    9.7610   27.2600   23.7590 C   0  0  0  0  0  0  0  0  0  0  0  0
    9.6710   26.6780   22.5060 C   0  0  0  0  0  0  0  0  0  0  0  0
    8.5430   26.9260   21.7330 C   0  0  0  0  0  0  0  0  0  0  0  0
   11.1460   26.9620   24.7380 Cl  0  0  0  0  0  0  0  0  0  0  0  0
   10.8198   32.3964   30.8058 H   0  0  0  0  0  0  0  0  0  0  0  0
   12.2865   31.9329   29.8781 H   0  0  0  0  0  0  0  0  0  0  0  0
   11.7259   33.6394   29.8781 H   0  0  0  0  0  0  0  0  0  0  0  0
   10.1672   34.2033   27.9117 H   0  0  0  0  0  0  0  0  0  0  0  0
   11.8625   33.5359   27.6526 H   0  0  0  0  0  0  0  0  0  0  0  0
   10.0316   33.7285   25.6700 H   0  0  0  0  0  0  0  0  0  0  0  0
   11.3235   32.4466   25.7735 H   0  0  0  0  0  0  0  0  0  0  0  0
    8.9547   30.1370   27.4048 H   0  0  0  0  0  0  0  0  0  0  0  0
   10.4365   30.0208   26.3145 H   0  0  0  0  0  0  0  0  0  0  0  0
   10.6012   30.2403   28.9996 H   0  0  0  0  0  0  0  0  0  0  0  0
   11.8223   30.9088   27.8280 H   0  0  0  0  0  0  0  0  0  0  0  0
    9.4198   32.0843   24.1357 H   0  0  0  0  0  0  0  0  0  0  0  0
    9.3083   30.3604   24.7208 H   0  0  0  0  0  0  0  0  0  0  0  0
    7.0182   32.2224   25.2907 H   0  0  0  0  0  0  0  0  0  0  0  0
    7.2199   31.5767   23.6197 H   0  0  0  0  0  0  0  0  0  0  0  0
    7.5632   29.5553   25.7747 H   0  0  0  0  0  0  0  0  0  0  0  0
    5.9045   30.2824   25.6554 H   0  0  0  0  0  0  0  0  0  0  0  0
    4.3517   30.4137   25.0328 H   0  0  0  0  0  0  0  0  0  0  0  0
    2.1103   30.6625   24.0052 H   0  0  0  0  0  0  0  0  0  0  0  0
    1.6630   29.7381   21.7354 H   0  0  0  0  0  0  0  0  0  0  0  0
    3.4867   28.5667   20.5133 H   0  0  0  0  0  0  0  0  0  0  0  0
    8.8377   28.5319   25.2366 H   0  0  0  0  0  0  0  0  0  0  0  0
   10.4772   26.0314   22.1294 H   0  0  0  0  0  0  0  0  0  0  0  0
    8.4579   26.4676   20.7367 H   0  0  0  0  0  0  0  0  0  0  0  0
  1  2  1  0
  2  3  1  0
  3  4  1  0
  4  5  1  0
  5  6  1  0
  6  7  1  0
  5  8  1  0
  8  9  1  0
  9 10  1  0
 10 11  1  0
 11 12  1  0
 12 13  2  0
 13 14  1  0
 14 15  2  0
 15 16  1  0
 16 17  2  0
 17 18  1  0
 18 19  1  0
 19 20  2  0
 20 21  1  0
 21 22  2  0
 22 23  1  0
 23 24  2  0
 22 25  1  0
  7  2  1  0
 20 11  1  0
 17 12  1  0
 24 19  1  0
  1 26  1  0
  1 27  1  0
  1 28  1  0
  3 29  1  0
  3 30  1  0
  4 31  1  0
  4 32  1  0
  6 33  1  0
  6 34  1  0
  7 35  1  0
  7 36  1  0
  8 37  1  0
  8 38  1  0
  9 39  1  0
  9 40  1  0
 10 41  1  0
 10 42  1  0
 13 43  1  0
 14 44  1  0
 15 45  1  0
 16 46  1  0
 21 47  1  0
 23 48  1  0
 24 49  1  0
M  END
