
     RDKit          3D

 65 67  0  0  0  0  0  0  0  0999 V2000
   11.1500   29.2090   27.3810 C   0  0  0  0  0  0  0  0  0  0  0  0
   10.3470   30.5050   27.3460 C   0  0  1  0  0  0  0  0  0  0  0  0
   10.8990   31.4410   28.4270 C   0  0  0  0  0  0  0  0  0  0  0  0
   11.5300   31.0650   29.4090 O   0  0  0  0  0  0  0  0  0  0  0  0
   10.5480   32.7300   28.1610 O   0  0  0  0  0  0  0  0  0  0  0  0
   11.4940   33.7400   28.5600 C   0  0  0  0  0  0  0  0  0  0  0  0
   10.8290   34.7020   29.5380 C   0  0  0  0  0  0  0  0  0  0  0  0
   11.9310   34.4700   27.2960 C   0  0  0  0  0  0  0  0  0  0  0  0
   10.4250   31.1860   26.0530 N   0  0  0  0  0  0  0  0  0  0  0  0
    9.2880   31.0070   24.9060 P   0  0  2  0  0  5  0  0  0  0  0  0
    9.7950   31.0760   23.4970 O   0  0  0  0  0  0  0  0  0  0  0  0
    8.1640   32.1170   25.2280 O   0  0  0  0  0  0  0  0  0  0  0  0
    7.7170   32.9560   24.1700 C   0  0  0  0  0  0  0  0  0  0  0  0
    6.2130   32.7640   23.9840 C   0  0  2  0  0  0  0  0  0  0  0  0
    5.8070   31.2920   23.9570 C   0  0  2  0  0  0  0  0  0  0  0  0
    4.5120   31.3540   23.1610 C   0  0  1  0  0  0  0  0  0  0  0  0
    4.7410   32.5250   22.1910 C   0  0  1  0  0  0  0  0  0  0  0  0
    5.8110   33.3340   22.7180 O   0  0  0  0  0  0  0  0  0  0  0  0
    5.0130   32.2370   20.7780 N   0  0  0  0  0  0  0  0  0  0  0  0
    6.3120   31.9430   20.3990 C   0  0  0  0  0  0  0  0  0  0  0  0
    6.6370   31.6450   19.1380 C   0  0  0  0  0  0  0  0  0  0  0  0
    5.5800   31.6220   18.1190 C   0  0  0  0  0  0  0  0  0  0  0  0
    5.8330   31.3690   16.9480 O   0  0  0  0  0  0  0  0  0  0  0  0
    4.3240   31.9050   18.5680 N   0  0  0  0  0  0  0  0  0  0  0  0
    3.9750   32.2220   19.8550 C   0  0  0  0  0  0  0  0  0  0  0  0
    2.8060   32.4900   20.1170 O   0  0  0  0  0  0  0  0  0  0  0  0
    4.0530   30.0330   22.5730 C   0  0  0  0  0  0  0  0  0  0  0  0
    3.5050   31.7600   24.0140 F   0  0  0  0  0  0  0  0  0  0  0  0
    5.6140   30.7240   25.2510 O   0  0  0  0  0  0  0  0  0  0  0  0
    8.5320   29.6200   25.2600 O   0  0  0  0  0  0  0  0  0  0  0  0
    8.6450   28.5040   24.4830 C   0  0  0  0  0  0  0  0  0  0  0  0
    7.5040   28.0610   23.8190 C   0  0  0  0  0  0  0  0  0  0  0  0
    7.5720   26.9300   23.0050 C   0  0  0  0  0  0  0  0  0  0  0  0
    8.7760   26.2370   22.8750 C   0  0  0  0  0  0  0  0  0  0  0  0
    9.9090   26.6710   23.5620 C   0  0  0  0  0  0  0  0  0  0  0  0
    9.8430   27.8040   24.3750 C   0  0  0  0  0  0  0  0  0  0  0  0
   11.3305   28.9176   28.4262 H   0  0  0  0  0  0  0  0  0  0  0  0
   10.5859   28.4142   26.8710 H   0  0  0  0  0  0  0  0  0  0  0  0
   12.1128   29.3603   26.8710 H   0  0  0  0  0  0  0  0  0  0  0  0
    9.2911   30.2509   27.5205 H   0  0  0  0  0  0  0  0  0  0  0  0
   12.3664   33.2976   29.0633 H   0  0  0  0  0  0  0  0  0  0  0  0
   11.0474   34.3861   30.5688 H   0  0  0  0  0  0  0  0  0  0  0  0
   11.2187   35.7177   29.3754 H   0  0  0  0  0  0  0  0  0  0  0  0
    9.7411   34.6963   29.3754 H   0  0  0  0  0  0  0  0  0  0  0  0
   12.4781   35.3839   27.5709 H   0  0  0  0  0  0  0  0  0  0  0  0
   12.5858   33.8153   26.7023 H   0  0  0  0  0  0  0  0  0  0  0  0
   11.0446   34.7379   26.7023 H   0  0  0  0  0  0  0  0  0  0  0  0
   10.4655   32.1938   26.2617 H   0  0  0  0  0  0  0  0  0  0  0  0
    7.9266   34.0068   24.4190 H   0  0  0  0  0  0  0  0  0  0  0  0
    8.2428   32.6933   23.2402 H   0  0  0  0  0  0  0  0  0  0  0  0
    5.7251   33.2555   24.8386 H   0  0  0  0  0  0  0  0  0  0  0  0
    6.5812   30.6406   23.5255 H   0  0  0  0  0  0  0  0  0  0  0  0
    3.7614   33.0236   22.1488 H   0  0  0  0  0  0  0  0  0  0  0  0
    7.1036   31.9553   21.1627 H   0  0  0  0  0  0  0  0  0  0  0  0
    7.6793   31.4205   18.8675 H   0  0  0  0  0  0  0  0  0  0  0  0
    3.5643   31.8780   17.8730 H   0  0  0  0  0  0  0  0  0  0  0  0
    3.8101   29.3340   23.3869 H   0  0  0  0  0  0  0  0  0  0  0  0
    3.1596   30.1984   21.9529 H   0  0  0  0  0  0  0  0  0  0  0  0
    4.8564   29.6088   21.9529 H   0  0  0  0  0  0  0  0  0  0  0  0
    5.8418   31.3944   25.9430 H   0  0  0  0  0  0  0  0  0  0  0  0
    6.5527   28.6007   23.9358 H   0  0  0  0  0  0  0  0  0  0  0  0
    6.6772   26.5849   22.4662 H   0  0  0  0  0  0  0  0  0  0  0  0
    8.8314   25.3476   22.2301 H   0  0  0  0  0  0  0  0  0  0  0  0
   10.8560   26.1201   23.4633 H   0  0  0  0  0  0  0  0  0  0  0  0
   10.7326   28.1415   24.9270 H   0  0  0  0  0  0  0  0  0  0  0  0
  1  2  1  0
  2  3  1  0
  3  4  2  0
  3  5  1  0
  5  6  1  0
  6  7  1  0
  6  8  1  0
  2  9  1  0
  9 10  1  0
 10 11  2  0
 10 12  1  6
 12 13  1  0
 13 14  1  0
 14 15  1  0
 15 16  1  0
 16 17  1  0
 17 18  1  0
 17 19  1  0
 19 20  1  0
 20 21  2  0
 21 22  1  0
 22 23  2  0
 22 24  1  0
 24 25  1  0
 25 26  2  0
 16 27  1  0
 16 28  1  1
 15 29  1  0
 10 30  1  0
 30 31  1  0
 31 32  2  0
 32 33  1  0
 33 34  2  0
 34 35  1  0
 35 36  2  0
 18 14  1  0
 25 19  1  0
 36 31  1  0
  1 37  1  0
  1 38  1  0
  1 39  1  0
  2 40  1  1
  6 41  1  0
  7 42  1  0
  7 43  1  0
  7 44  1  0
  8 45  1  0
  8 46  1  0
  8 47  1  0
  9 48  1  0
 13 49  1  0
 13 50  1  0
 14 51  1  1
 15 52  1  6
 17 53  1  6
 20 54  1  0
 21 55  1  0
 24 56  1  0
 27 57  1  0
 27 58  1  0
 27 59  1  0
 29 60  1  0
 32 61  1  0
 33 62  1  0
 34 63  1  0
 35 64  1  0
 36 65  1  0
M  END
