
     RDKit          3D

 33 34  0  0  0  0  0  0  0  0999 V2000
    8.4150   29.6180   22.6170 C   0  0  0  0  0  0  0  0  0  0  0  0
    8.4540   31.1320   22.4470 C   0  0  0  0  0  0  0  0  0  0  0  0
    9.4140   31.8360   23.4070 C   0  0  0  0  0  0  0  0  0  0  0  0
    8.5600   32.4590   24.8960 S   0  0  0  0  0  0  0  0  0  0  0  0
    9.4930   31.5900   26.1480 C   0  0  0  0  0  0  0  0  0  0  0  0
    9.6960   30.2090   26.0090 C   0  0  0  0  0  0  0  0  0  0  0  0
   10.4330   29.5340   26.9920 C   0  0  0  0  0  0  0  0  0  0  0  0
   10.9490   30.2490   28.0680 C   0  0  0  0  0  0  0  0  0  0  0  0
   10.7760   31.6240   28.2300 C   0  0  0  0  0  0  0  0  0  0  0  0
   10.0360   32.2810   27.2400 C   0  0  0  0  0  0  0  0  0  0  0  0
   11.5990   29.3030   28.8150 N   0  0  0  0  0  0  0  0  0  0  0  0
   11.4580   28.0900   28.1900 C   0  0  0  0  0  0  0  0  0  0  0  0
   10.7570   28.2010   27.0870 N   0  0  0  0  0  0  0  0  0  0  0  0
   11.9840   26.9190   28.6600 N   0  0  0  0  0  0  0  0  0  0  0  0
   12.7090   26.8320   29.8100 C   0  0  0  0  0  0  0  0  0  0  0  0
   12.9820   27.7610   30.5610 O   0  0  0  0  0  0  0  0  0  0  0  0
   13.0900   25.5440   30.0030 O   0  0  0  0  0  0  0  0  0  0  0  0
   12.2860   24.5850   29.3120 C   0  0  0  0  0  0  0  0  0  0  0  0
    8.4086   29.3694   23.6885 H   0  0  0  0  0  0  0  0  0  0  0  0
    7.5063   29.2190   22.1426 H   0  0  0  0  0  0  0  0  0  0  0  0
    9.3020   29.1728   22.1426 H   0  0  0  0  0  0  0  0  0  0  0  0
    8.7664   31.3574   21.4167 H   0  0  0  0  0  0  0  0  0  0  0  0
    7.4442   31.5059   22.6719 H   0  0  0  0  0  0  0  0  0  0  0  0
   10.1926   31.1233   23.7165 H   0  0  0  0  0  0  0  0  0  0  0  0
    9.8494   32.6978   22.8801 H   0  0  0  0  0  0  0  0  0  0  0  0
    9.2847   29.6661   25.1452 H   0  0  0  0  0  0  0  0  0  0  0  0
   11.1989   32.1633   29.0904 H   0  0  0  0  0  0  0  0  0  0  0  0
    9.8767   33.3664   27.3210 H   0  0  0  0  0  0  0  0  0  0  0  0
   10.5029   27.4488   26.4308 H   0  0  0  0  0  0  0  0  0  0  0  0
   11.8240   26.0586   28.1169 H   0  0  0  0  0  0  0  0  0  0  0  0
   11.7577   23.9549   30.0426 H   0  0  0  0  0  0  0  0  0  0  0  0
   11.5525   25.1081   28.6808 H   0  0  0  0  0  0  0  0  0  0  0  0
   12.9291   23.9541   28.6808 H   0  0  0  0  0  0  0  0  0  0  0  0
  1  2  1  0
  2  3  1  0
  3  4  1  0
  4  5  1  0
  5  6  2  0
  6  7  1  0
  7  8  2  0
  8  9  1  0
  9 10  2  0
  8 11  1  0
 11 12  2  0
 12 13  1  0
 12 14  1  0
 14 15  1  0
 15 16  2  0
 15 17  1  0
 17 18  1  0
 10  5  1  0
 13  7  1  0
  1 19  1  0
  1 20  1  0
  1 21  1  0
  2 22  1  0
  2 23  1  0
  3 24  1  0
  3 25  1  0
  6 26  1  0
  9 27  1  0
 10 28  1  0
 13 29  1  0
 14 30  1  0
 18 31  1  0
 18 32  1  0
 18 33  1  0
M  END
