
     RDKit          3D

 39 42  0  0  0  0  0  0  0  0999 V2000
   12.5480   26.4360   30.2150 C   0  0  0  0  0  0  0  0  0  0  0  0
   12.0540   25.4920   29.1580 C   0  0  0  0  0  0  0  0  0  0  0  0
   11.6300   26.9320   29.1340 C   0  0  0  0  0  0  0  0  0  0  0  0
   12.1190   27.8420   28.1080 N   0  0  0  0  0  0  0  0  0  0  0  0
   11.3270   28.9340   27.7100 C   0  0  0  0  0  0  0  0  0  0  0  0
   10.5940   28.8970   26.5120 C   0  0  0  0  0  0  0  0  0  0  0  0
    9.8480   30.0200   26.2070 C   0  0  0  0  0  0  0  0  0  0  0  0
    9.7360   31.1410   26.9340 N   0  0  0  0  0  0  0  0  0  0  0  0
   10.4840   31.0900   28.0470 C   0  0  0  0  0  0  0  0  0  0  0  0
   11.2390   30.0620   28.4670 N   0  0  0  0  0  0  0  0  0  0  0  0
   10.4350   32.1930   28.8770 N   0  0  0  0  0  0  0  0  0  0  0  0
    9.2480   29.7320   25.0100 N   0  0  0  0  0  0  0  0  0  0  0  0
    9.6240   28.4600   24.6600 C   0  0  0  0  0  0  0  0  0  0  0  0
   10.4400   27.9250   25.5430 N   0  0  0  0  0  0  0  0  0  0  0  0
    8.3440   30.6150   24.2960 C   0  0  2  0  0  0  0  0  0  0  0  0
    6.8680   30.3200   24.6080 C   0  0  0  0  0  0  0  0  0  0  0  0
    6.1020   30.5720   23.2960 C   0  0  1  0  0  0  0  0  0  0  0  0
    7.1770   30.4450   22.2580 C   0  0  0  0  0  0  0  0  0  0  0  0
    8.4000   30.4760   22.8020 C   0  0  0  0  0  0  0  0  0  0  0  0
    4.9380   29.6020   23.0940 C   0  0  0  0  0  0  0  0  0  0  0  0
    4.1530   29.5070   24.2770 O   0  0  0  0  0  0  0  0  0  0  0  0
   12.1821   26.3449   31.2484 H   0  0  0  0  0  0  0  0  0  0  0  0
   13.5379   26.7329   30.5917 H   0  0  0  0  0  0  0  0  0  0  0  0
   12.7474   25.1102   28.3942 H   0  0  0  0  0  0  0  0  0  0  0  0
   11.5272   24.5264   29.1627 H   0  0  0  0  0  0  0  0  0  0  0  0
   10.6625   27.4548   29.1098 H   0  0  0  0  0  0  0  0  0  0  0  0
   13.0408   27.6867   27.6756 H   0  0  0  0  0  0  0  0  0  0  0  0
   10.9888   32.2091   29.7453 H   0  0  0  0  0  0  0  0  0  0  0  0
    9.8447   32.9994   28.6276 H   0  0  0  0  0  0  0  0  0  0  0  0
    9.2834   27.9474   23.7483 H   0  0  0  0  0  0  0  0  0  0  0  0
    8.6779   31.6085   24.6299 H   0  0  0  0  0  0  0  0  0  0  0  0
    6.7459   29.2747   24.9279 H   0  0  0  0  0  0  0  0  0  0  0  0
    6.4924   30.9551   25.4239 H   0  0  0  0  0  0  0  0  0  0  0  0
    5.6003   31.5504   23.2653 H   0  0  0  0  0  0  0  0  0  0  0  0
    6.9841   30.3392   21.1802 H   0  0  0  0  0  0  0  0  0  0  0  0
    9.3334   30.4078   22.2240 H   0  0  0  0  0  0  0  0  0  0  0  0
    4.3061   29.9627   22.2690 H   0  0  0  0  0  0  0  0  0  0  0  0
    5.3430   28.6072   22.8568 H   0  0  0  0  0  0  0  0  0  0  0  0
    4.7413   29.5782   25.0700 H   0  0  0  0  0  0  0  0  0  0  0  0
  1  2  1  0
  2  3  1  0
  3  4  1  0
  4  5  1  0
  5  6  2  0
  6  7  1  0
  7  8  2  0
  8  9  1  0
  9 10  2  0
  9 11  1  0
  7 12  1  0
 12 13  1  0
 13 14  2  0
 12 15  1  0
 15 16  1  0
 16 17  1  0
 17 18  1  0
 18 19  2  0
 17 20  1  0
 20 21  1  0
  3  1  1  0
 10  5  1  0
 14  6  1  0
 19 15  1  0
  1 22  1  0
  1 23  1  0
  2 24  1  0
  2 25  1  0
  3 26  1  0
  4 27  1  0
 11 28  1  0
 11 29  1  0
 13 30  1  0
 15 31  1  6
 16 32  1  0
 16 33  1  0
 17 34  1  1
 18 35  1  0
 19 36  1  0
 20 37  1  0
 20 38  1  0
 21 39  1  0
M  END
