
     RDKit          3D

 48 49  0  0  0  0  0  0  0  0999 V2000
   62.6450  136.4550   89.0080 C   0  0  0  0  0  0  0  0  0  0  0  0
   63.1180  136.4580   90.4580 C   0  0  0  0  0  0  0  0  0  0  0  0
   62.0580  136.7760   91.4330 N   0  0  0  0  0  0  0  0  0  0  0  0
   62.2840  136.1960   92.7670 C   0  0  0  0  0  0  0  0  0  0  0  0
   61.1640  136.3740   93.7870 C   0  0  0  0  0  0  0  0  0  0  0  0
   61.8170  138.2300   91.4490 C   0  0  0  0  0  0  0  0  0  0  0  0
   60.5420  138.6880   90.7230 C   0  0  0  0  0  0  0  0  0  0  0  0
   59.2600  138.2780   91.4650 C   0  0  0  0  0  0  0  0  0  0  0  0
   57.9450  138.5980   90.7220 C   0  0  0  0  0  0  0  0  0  0  0  0
   57.8810  137.8940   89.3650 C   0  0  0  0  0  0  0  0  0  0  0  0
   56.8010  138.1980   91.5530 N   0  0  0  0  0  0  0  0  0  0  0  0
   55.8410  139.1080   92.0320 C   0  0  0  0  0  0  0  0  0  0  0  0
   55.3260  138.9530   93.3540 C   0  0  0  0  0  0  0  0  0  0  0  0
   55.7220  137.9170   94.2360 C   0  0  0  0  0  0  0  0  0  0  0  0
   55.1980  137.8200   95.5250 C   0  0  0  0  0  0  0  0  0  0  0  0
   54.2660  138.7540   95.9480 C   0  0  0  0  0  0  0  0  0  0  0  0
   53.8500  139.7710   95.0930 C   0  0  0  0  0  0  0  0  0  0  0  0
   54.3570  139.8820   93.8070 C   0  0  0  0  0  0  0  0  0  0  0  0
   53.8880  140.8750   93.0400 N   0  0  0  0  0  0  0  0  0  0  0  0
   54.3520  140.9680   91.7810 C   0  0  0  0  0  0  0  0  0  0  0  0
   55.3010  140.1200   91.2400 C   0  0  0  0  0  0  0  0  0  0  0  0
   53.6110  138.6490   97.5360 Cl  0  0  0  0  0  0  0  0  0  0  0  0
   61.5454  136.4480   88.9810 H   0  0  0  0  0  0  0  0  0  0  0  0
   63.0186  137.3555   88.4986 H   0  0  0  0  0  0  0  0  0  0  0  0
   63.0300  135.5593   88.4986 H   0  0  0  0  0  0  0  0  0  0  0  0
   63.5173  135.4605   90.6939 H   0  0  0  0  0  0  0  0  0  0  0  0
   63.8777  137.2489   90.5438 H   0  0  0  0  0  0  0  0  0  0  0  0
   62.4495  135.1162   92.6379 H   0  0  0  0  0  0  0  0  0  0  0  0
   63.1431  136.7447   93.1804 H   0  0  0  0  0  0  0  0  0  0  0  0
   61.5797  136.3079   94.8033 H   0  0  0  0  0  0  0  0  0  0  0  0
   60.6933  137.3582   93.6467 H   0  0  0  0  0  0  0  0  0  0  0  0
   60.4113  135.5842   93.6467 H   0  0  0  0  0  0  0  0  0  0  0  0
   61.7458  138.5520   92.4984 H   0  0  0  0  0  0  0  0  0  0  0  0
   62.6586  138.6858   90.9068 H   0  0  0  0  0  0  0  0  0  0  0  0
   60.5620  139.7842   90.6334 H   0  0  0  0  0  0  0  0  0  0  0  0
   60.5267  138.2007   89.7369 H   0  0  0  0  0  0  0  0  0  0  0  0
   59.2985  137.1924   91.6383 H   0  0  0  0  0  0  0  0  0  0  0  0
   59.2400  138.8682   92.3931 H   0  0  0  0  0  0  0  0  0  0  0  0
   57.9088  139.6818   90.5376 H   0  0  0  0  0  0  0  0  0  0  0  0
   57.7824  136.8093   89.5190 H   0  0  0  0  0  0  0  0  0  0  0  0
   57.0128  138.2646   88.8002 H   0  0  0  0  0  0  0  0  0  0  0  0
   58.8018  138.1020   88.8002 H   0  0  0  0  0  0  0  0  0  0  0  0
   56.6969  137.2027   91.7967 H   0  0  0  0  0  0  0  0  0  0  0  0
   56.4583  137.1735   93.8969 H   0  0  0  0  0  0  0  0  0  0  0  0
   55.5208  137.0117   96.1977 H   0  0  0  0  0  0  0  0  0  0  0  0
   53.1051  140.5002   95.4442 H   0  0  0  0  0  0  0  0  0  0  0  0
   53.9516  141.7686   91.1417 H   0  0  0  0  0  0  0  0  0  0  0  0
   55.6261  140.2427   90.1963 H   0  0  0  0  0  0  0  0  0  0  0  0
  1  2  1  0
  2  3  1  0
  3  4  1  0
  4  5  1  0
  3  6  1  0
  6  7  1  0
  7  8  1  0
  8  9  1  0
  9 10  1  0
  9 11  1  0
 11 12  1  0
 12 13  2  0
 13 14  1  0
 14 15  2  0
 15 16  1  0
 16 17  2  0
 17 18  1  0
 18 19  2  0
 19 20  1  0
 20 21  2  0
 16 22  1  0
 21 12  1  0
 18 13  1  0
  1 23  1  0
  1 24  1  0
  1 25  1  0
  2 26  1  0
  2 27  1  0
  4 28  1  0
  4 29  1  0
  5 30  1  0
  5 31  1  0
  5 32  1  0
  6 33  1  0
  6 34  1  0
  7 35  1  0
  7 36  1  0
  8 37  1  0
  8 38  1  0
  9 39  1  0
 10 40  1  0
 10 41  1  0
 10 42  1  0
 11 43  1  0
 14 44  1  0
 15 45  1  0
 17 46  1  0
 20 47  1  0
 21 48  1  0
M  END
