
     RDKit          3D

 47 50  0  0  0  0  0  0  0  0999 V2000
   52.8140  137.5420   96.0350 C   0  0  0  0  0  0  0  0  0  0  0  0
   52.2270  138.1310   94.7520 C   0  0  0  0  0  0  0  0  0  0  0  0
   52.9170  137.5870   93.5060 C   0  0  0  0  0  0  0  0  0  0  0  0
   54.4340  137.8740   93.4900 C   0  0  0  0  0  0  0  0  0  0  0  0
   54.9880  138.1510   94.9030 C   0  0  0  0  0  0  0  0  0  0  0  0
   54.3150  137.2660   95.9440 C   0  0  0  0  0  0  0  0  0  0  0  0
   54.7670  139.0210   92.5260 C   0  0  0  0  0  0  0  0  0  0  0  0
   53.8830  139.7690   92.1010 O   0  0  0  0  0  0  0  0  0  0  0  0
   56.0880  139.1780   92.1180 N   0  0  0  0  0  0  0  0  0  0  0  0
   57.2530  138.5970   92.7830 C   0  0  0  0  0  0  0  0  0  0  0  0
   58.3710  138.2770   91.7690 C   0  0  0  0  0  0  0  0  0  0  0  0
   59.6060  137.6020   92.3710 C   0  0  0  0  0  0  0  0  0  0  0  0
   59.6090  136.9440   93.6110 C   0  0  0  0  0  0  0  0  0  0  0  0
   60.7530  136.2860   94.0720 C   0  0  0  0  0  0  0  0  0  0  0  0
   61.9090  136.2600   93.2970 C   0  0  0  0  0  0  0  0  0  0  0  0
   61.9280  136.8980   92.0620 C   0  0  0  0  0  0  0  0  0  0  0  0
   60.7900  137.5730   91.6030 C   0  0  0  0  0  0  0  0  0  0  0  0
   60.7950  138.2710   90.2710 C   0  0  0  0  0  0  0  0  0  0  0  0
   60.0540  139.5980   90.3980 C   0  0  0  0  0  0  0  0  0  0  0  0
   58.7110  139.4690   90.9640 N   0  0  0  0  0  0  0  0  0  0  0  0
   57.7710  140.4380   90.6410 C   0  0  0  0  0  0  0  0  0  0  0  0
   58.0420  141.3930   89.9100 O   0  0  0  0  0  0  0  0  0  0  0  0
   56.3700  140.3250   91.2580 C   0  0  0  0  0  0  0  0  0  0  0  0
   52.6390  138.2520   96.8567 H   0  0  0  0  0  0  0  0  0  0  0  0
   52.3157  136.5766   96.2072 H   0  0  0  0  0  0  0  0  0  0  0  0
   51.1570  137.8806   94.7034 H   0  0  0  0  0  0  0  0  0  0  0  0
   52.3800  139.2200   94.7770 H   0  0  0  0  0  0  0  0  0  0  0  0
   52.7646  136.4983   93.4666 H   0  0  0  0  0  0  0  0  0  0  0  0
   52.4747  138.0921   92.6347 H   0  0  0  0  0  0  0  0  0  0  0  0
   54.9329  136.9645   93.1240 H   0  0  0  0  0  0  0  0  0  0  0  0
   56.0699  137.9523   94.9091 H   0  0  0  0  0  0  0  0  0  0  0  0
   54.7841  139.2019   95.1563 H   0  0  0  0  0  0  0  0  0  0  0  0
   54.4677  136.2121   95.6684 H   0  0  0  0  0  0  0  0  0  0  0  0
   54.7643  137.4862   96.9236 H   0  0  0  0  0  0  0  0  0  0  0  0
   57.6360  139.3121   93.5259 H   0  0  0  0  0  0  0  0  0  0  0  0
   56.9453  137.6600   93.2701 H   0  0  0  0  0  0  0  0  0  0  0  0
   57.9550  137.5136   91.0951 H   0  0  0  0  0  0  0  0  0  0  0  0
   58.6986  136.9462   94.2284 H   0  0  0  0  0  0  0  0  0  0  0  0
   60.7396  135.7864   95.0519 H   0  0  0  0  0  0  0  0  0  0  0  0
   62.8051  135.7360   93.6608 H   0  0  0  0  0  0  0  0  0  0  0  0
   62.8380  136.8726   91.4445 H   0  0  0  0  0  0  0  0  0  0  0  0
   61.8327  138.4575   89.9572 H   0  0  0  0  0  0  0  0  0  0  0  0
   60.2966  137.6395   89.5207 H   0  0  0  0  0  0  0  0  0  0  0  0
   60.6421  140.2636   91.0470 H   0  0  0  0  0  0  0  0  0  0  0  0
   59.9373  140.0000   89.3808 H   0  0  0  0  0  0  0  0  0  0  0  0
   56.2029  141.2319   91.8576 H   0  0  0  0  0  0  0  0  0  0  0  0
   55.7007  140.1917   90.3953 H   0  0  0  0  0  0  0  0  0  0  0  0
  1  2  1  0
  2  3  1  0
  3  4  1  0
  4  5  1  0
  5  6  1  0
  4  7  1  0
  7  8  2  0
  7  9  1  0
  9 10  1  0
 10 11  1  0
 11 12  1  0
 12 13  2  0
 13 14  1  0
 14 15  2  0
 15 16  1  0
 16 17  2  0
 17 18  1  0
 18 19  1  0
 19 20  1  0
 20 21  1  0
 21 22  2  0
 21 23  1  0
  6  1  1  0
 23  9  1  0
 20 11  1  0
 17 12  1  0
  1 24  1  0
  1 25  1  0
  2 26  1  0
  2 27  1  0
  3 28  1  0
  3 29  1  0
  4 30  1  0
  5 31  1  0
  5 32  1  0
  6 33  1  0
  6 34  1  0
 10 35  1  0
 10 36  1  0
 11 37  1  0
 13 38  1  0
 14 39  1  0
 15 40  1  0
 16 41  1  0
 18 42  1  0
 18 43  1  0
 19 44  1  0
 19 45  1  0
 23 46  1  0
 23 47  1  0
M  END
