
     RDKit          3D

 30 31  0  0  0  0  0  0  0  0999 V2000
    5.3930   33.6630   21.9190 C   0  0  0  0  0  0  0  0  0  0  0  0
    6.1980   34.1540   20.9520 N   0  0  0  0  0  0  0  0  0  0  0  0
    7.5150   33.8430   20.9910 C   0  0  0  0  0  0  0  0  0  0  0  0
    7.9740   33.0020   22.0180 C   0  0  0  0  0  0  0  0  0  0  0  0
    7.0290   32.5710   22.9350 C   0  0  0  0  0  0  0  0  0  0  0  0
    5.7170   32.8580   22.9540 N   0  0  0  0  0  0  0  0  0  0  0  0
    7.7250   31.7840   23.8100 N   0  0  0  0  0  0  0  0  0  0  0  0
    9.0310   31.7570   23.4010 C   0  0  0  0  0  0  0  0  0  0  0  0
    9.2180   32.4770   22.3140 N   0  0  0  0  0  0  0  0  0  0  0  0
    7.1720   31.1130   24.9620 C   0  0  0  0  0  0  0  0  0  0  0  0
    6.7230   29.6890   24.6460 C   0  0  0  0  0  0  0  0  0  0  0  0
    5.3070   29.6290   24.4730 O   0  0  0  0  0  0  0  0  0  0  0  0
    4.9230   29.4580   23.1010 C   0  0  0  0  0  0  0  0  0  0  0  0
    3.1400   29.5830   22.9880 P   0  0  0  0  0  0  0  0  0  0  0  0
    2.5390   30.7940   22.3520 O   0  0  0  0  0  0  0  0  0  0  0  0
    2.5530   29.3260   24.4590 O   0  0  0  0  0  0  0  0  0  0  0  0
    2.6530   28.2460   22.2440 O   0  0  0  0  0  0  0  0  0  0  0  0
    8.3420   34.3540   20.0000 N   0  0  0  0  0  0  0  0  0  0  0  0
    4.3350   33.9572   21.8553 H   0  0  0  0  0  0  0  0  0  0  0  0
    9.8277   31.2014   23.9174 H   0  0  0  0  0  0  0  0  0  0  0  0
    7.9382   31.0751   25.7503 H   0  0  0  0  0  0  0  0  0  0  0  0
    6.2869   31.6794   25.2872 H   0  0  0  0  0  0  0  0  0  0  0  0
    7.2137   29.3535   23.7204 H   0  0  0  0  0  0  0  0  0  0  0  0
    7.0028   29.0370   25.4866 H   0  0  0  0  0  0  0  0  0  0  0  0
    5.3893   30.2411   22.4851 H   0  0  0  0  0  0  0  0  0  0  0  0
    5.2549   28.4744   22.7372 H   0  0  0  0  0  0  0  0  0  0  0  0
    3.2162   29.6163   25.1343 H   0  0  0  0  0  0  0  0  0  0  0  0
    2.4049   27.5649   22.9182 H   0  0  0  0  0  0  0  0  0  0  0  0
    9.3482   34.1338   20.0047 H   0  0  0  0  0  0  0  0  0  0  0  0
    7.9494   34.9533   19.2600 H   0  0  0  0  0  0  0  0  0  0  0  0
  1  2  2  0
  2  3  1  0
  3  4  2  0
  4  5  1  0
  5  6  2  0
  5  7  1  0
  7  8  1  0
  8  9  2  0
  7 10  1  0
 10 11  1  0
 11 12  1  0
 12 13  1  0
 13 14  1  0
 14 15  2  0
 14 16  1  0
 14 17  1  0
  3 18  1  0
  6  1  1  0
  9  4  1  0
  1 19  1  0
  8 20  1  0
 10 21  1  0
 10 22  1  0
 11 23  1  0
 11 24  1  0
 13 25  1  0
 13 26  1  0
 16 27  1  0
 17 28  1  0
 18 29  1  0
 18 30  1  0
M  END
