
     RDKit          3D

 46 47  0  0  0  0  0  0  0  0999 V2000
   62.7430  136.4380   92.4670 C   0  0  0  0  0  0  0  0  0  0  0  0
   61.2420  136.6620   92.6000 C   0  0  0  0  0  0  0  0  0  0  0  0
   60.7950  136.4860   94.0470 C   0  0  0  0  0  0  0  0  0  0  0  0
   60.9770  138.0120   92.1760 O   0  0  0  0  0  0  0  0  0  0  0  0
   60.5340  138.1700   90.8890 C   0  0  0  0  0  0  0  0  0  0  0  0
   61.2360  137.9800   89.9020 O   0  0  0  0  0  0  0  0  0  0  0  0
   59.0480  138.6140   90.8700 C   0  0  0  0  0  0  0  0  0  0  0  0
   59.0310  140.1260   91.1280 C   0  0  0  0  0  0  0  0  0  0  0  0
   58.4760  138.2000   89.5090 C   0  0  0  0  0  0  0  0  0  0  0  0
   58.4570  137.8720   91.9500 O   0  0  0  0  0  0  0  0  0  0  0  0
   57.3090  138.1870   92.6010 C   0  0  0  0  0  0  0  0  0  0  0  0
   57.2160  137.6120   93.8740 C   0  0  0  0  0  0  0  0  0  0  0  0
   56.1010  137.8270   94.6860 C   0  0  0  0  0  0  0  0  0  0  0  0
   55.0470  138.6140   94.2220 C   0  0  0  0  0  0  0  0  0  0  0  0
   55.1370  139.2100   92.9600 C   0  0  0  0  0  0  0  0  0  0  0  0
   56.2640  138.9900   92.1530 C   0  0  0  0  0  0  0  0  0  0  0  0
   53.8780  138.8340   95.1080 C   0  0  0  0  0  0  0  0  0  0  0  0
   53.9980  139.5570   96.0940 O   0  0  0  0  0  0  0  0  0  0  0  0
   52.5630  138.2020   94.8310 C   0  0  0  0  0  0  0  0  0  0  0  0
   51.4010  138.9450   95.0750 C   0  0  0  0  0  0  0  0  0  0  0  0
   50.1450  138.3800   94.8400 C   0  0  0  0  0  0  0  0  0  0  0  0
   50.0520  137.0700   94.3750 C   0  0  0  0  0  0  0  0  0  0  0  0
   51.2040  136.3160   94.1490 C   0  0  0  0  0  0  0  0  0  0  0  0
   52.4620  136.8780   94.3830 C   0  0  0  0  0  0  0  0  0  0  0  0
   48.5060  136.3730   94.0840 Cl  0  0  0  0  0  0  0  0  0  0  0  0
   63.1938  136.3707   93.4681 H   0  0  0  0  0  0  0  0  0  0  0  0
   62.9269  135.5025   91.9184 H   0  0  0  0  0  0  0  0  0  0  0  0
   63.1921  137.2791   91.9184 H   0  0  0  0  0  0  0  0  0  0  0  0
   60.6929  135.9322   91.9869 H   0  0  0  0  0  0  0  0  0  0  0  0
   61.6033  136.8043   94.7218 H   0  0  0  0  0  0  0  0  0  0  0  0
   59.9005  137.0991   94.2316 H   0  0  0  0  0  0  0  0  0  0  0  0
   60.5586  135.4277   94.2316 H   0  0  0  0  0  0  0  0  0  0  0  0
   59.0289  140.3130   92.2120 H   0  0  0  0  0  0  0  0  0  0  0  0
   59.9240  140.5847   90.6785 H   0  0  0  0  0  0  0  0  0  0  0  0
   58.1279  140.5645   90.6785 H   0  0  0  0  0  0  0  0  0  0  0  0
   57.5935  137.5612   89.6611 H   0  0  0  0  0  0  0  0  0  0  0  0
   58.1855  139.0984   88.9447 H   0  0  0  0  0  0  0  0  0  0  0  0
   59.2387  137.6433   88.9447 H   0  0  0  0  0  0  0  0  0  0  0  0
   58.0370  136.9788   94.2414 H   0  0  0  0  0  0  0  0  0  0  0  0
   56.0538  137.3771   95.6887 H   0  0  0  0  0  0  0  0  0  0  0  0
   54.3214  139.8536   92.5986 H   0  0  0  0  0  0  0  0  0  0  0  0
   56.3220  139.4560   91.1583 H   0  0  0  0  0  0  0  0  0  0  0  0
   51.4775  139.9754   95.4524 H   0  0  0  0  0  0  0  0  0  0  0  0
   49.2328  138.9674   95.0215 H   0  0  0  0  0  0  0  0  0  0  0  0
   51.1222  135.2805   93.7871 H   0  0  0  0  0  0  0  0  0  0  0  0
   53.3714  136.2821   94.2158 H   0  0  0  0  0  0  0  0  0  0  0  0
  1  2  1  0
  2  3  1  0
  2  4  1  0
  4  5  1  0
  5  6  2  0
  5  7  1  0
  7  8  1  0
  7  9  1  0
  7 10  1  0
 10 11  1  0
 11 12  2  0
 12 13  1  0
 13 14  2  0
 14 15  1  0
 15 16  2  0
 14 17  1  0
 17 18  2  0
 17 19  1  0
 19 20  2  0
 20 21  1  0
 21 22  2  0
 22 23  1  0
 23 24  2  0
 22 25  1  0
 16 11  1  0
 24 19  1  0
  1 26  1  0
  1 27  1  0
  1 28  1  0
  2 29  1  0
  3 30  1  0
  3 31  1  0
  3 32  1  0
  8 33  1  0
  8 34  1  0
  8 35  1  0
  9 36  1  0
  9 37  1  0
  9 38  1  0
 12 39  1  0
 13 40  1  0
 15 41  1  0
 16 42  1  0
 20 43  1  0
 21 44  1  0
 23 45  1  0
 24 46  1  0
M  END
