
     RDKit          3D

 43 46  0  0  0  0  0  0  0  0999 V2000
   49.0650  139.2610   90.6570 C   0  0  0  0  0  0  0  0  0  0  0  0
   50.3360  138.7420   91.3000 C   0  0  0  0  0  0  0  0  0  0  0  0
   51.4180  140.0840   91.7740 S   0  0  0  0  0  0  0  0  0  0  0  0
   51.6280  140.0440   93.2050 O   0  0  0  0  0  0  0  0  0  0  0  0
   50.9930  141.2940   91.1040 O   0  0  0  0  0  0  0  0  0  0  0  0
   52.8710  139.5930   91.0510 N   0  0  0  0  0  0  0  0  0  0  0  0
   54.1370  140.3930   91.1190 C   0  0  0  0  0  0  0  0  0  0  0  0
   54.8430  139.2510   91.8900 C   0  0  0  0  0  0  0  0  0  0  0  0
   53.6480  138.3720   91.4410 C   0  0  0  0  0  0  0  0  0  0  0  0
   54.9930  139.3900   93.4000 C   0  0  0  0  0  0  0  0  0  0  0  0
   54.4670  138.2150   94.1060 C   0  0  0  0  0  0  0  0  0  0  0  0
   54.0160  137.3020   94.6610 N   0  0  0  0  0  0  0  0  0  0  0  0
   56.0960  138.7840   91.2580 N   0  0  0  0  0  0  0  0  0  0  0  0
   57.3340  138.8170   91.8280 C   0  0  0  0  0  0  0  0  0  0  0  0
   58.2040  138.2410   90.9200 C   0  0  0  0  0  0  0  0  0  0  0  0
   57.3620  137.8420   89.8600 C   0  0  0  0  0  0  0  0  0  0  0  0
   56.0820  138.1690   90.0600 N   0  0  0  0  0  0  0  0  0  0  0  0
   59.6220  138.0840   91.1510 C   0  0  0  0  0  0  0  0  0  0  0  0
   60.1440  137.4420   92.2820 C   0  0  0  0  0  0  0  0  0  0  0  0
   59.6660  136.7650   93.4420 C   0  0  0  0  0  0  0  0  0  0  0  0
   60.7590  136.3530   94.1770 C   0  0  0  0  0  0  0  0  0  0  0  0
   61.8850  136.7470   93.5040 N   0  0  0  0  0  0  0  0  0  0  0  0
   61.5310  137.3930   92.3520 C   0  0  0  0  0  0  0  0  0  0  0  0
   62.4080  137.8840   91.4640 N   0  0  0  0  0  0  0  0  0  0  0  0
   61.7900  138.4580   90.4210 C   0  0  0  0  0  0  0  0  0  0  0  0
   60.4670  138.5780   90.2110 N   0  0  0  0  0  0  0  0  0  0  0  0
   48.3504  139.5528   91.4407 H   0  0  0  0  0  0  0  0  0  0  0  0
   49.3007  140.1349   90.0319 H   0  0  0  0  0  0  0  0  0  0  0  0
   48.6217  138.4719   90.0319 H   0  0  0  0  0  0  0  0  0  0  0  0
   50.0729  138.1603   92.1957 H   0  0  0  0  0  0  0  0  0  0  0  0
   50.8634  138.1122   90.5684 H   0  0  0  0  0  0  0  0  0  0  0  0
   54.5815  140.6088   90.1362 H   0  0  0  0  0  0  0  0  0  0  0  0
   54.1223  141.4107   91.5363 H   0  0  0  0  0  0  0  0  0  0  0  0
   53.8783  137.7021   90.5995 H   0  0  0  0  0  0  0  0  0  0  0  0
   53.2109  137.6409   92.1370 H   0  0  0  0  0  0  0  0  0  0  0  0
   56.0595  139.5050   93.6437 H   0  0  0  0  0  0  0  0  0  0  0  0
   54.4189  140.2709   93.7231 H   0  0  0  0  0  0  0  0  0  0  0  0
   57.5910  139.2228   92.8176 H   0  0  0  0  0  0  0  0  0  0  0  0
   57.7218  137.3168   88.9630 H   0  0  0  0  0  0  0  0  0  0  0  0
   58.6108  136.5999   93.7051 H   0  0  0  0  0  0  0  0  0  0  0  0
   60.7309  135.8067   95.1313 H   0  0  0  0  0  0  0  0  0  0  0  0
   62.8519  136.5817   93.8181 H   0  0  0  0  0  0  0  0  0  0  0  0
   62.4437  138.8814   89.6442 H   0  0  0  0  0  0  0  0  0  0  0  0
  1  2  1  0
  2  3  1  0
  3  4  2  0
  3  5  2  0
  3  6  1  0
  6  7  1  0
  7  8  1  0
  8  9  1  0
  8 10  1  0
 10 11  1  0
 11 12  3  0
  8 13  1  0
 13 14  1  0
 14 15  2  0
 15 16  1  0
 16 17  2  0
 15 18  1  0
 18 19  2  0
 19 20  1  0
 20 21  2  0
 21 22  1  0
 22 23  1  0
 23 24  2  0
 24 25  1  0
 25 26  2  0
  9  6  1  0
 17 13  1  0
 26 18  1  0
 23 19  1  0
  1 27  1  0
  1 28  1  0
  1 29  1  0
  2 30  1  0
  2 31  1  0
  7 32  1  0
  7 33  1  0
  9 34  1  0
  9 35  1  0
 10 36  1  0
 10 37  1  0
 14 38  1  0
 16 39  1  0
 20 40  1  0
 21 41  1  0
 22 42  1  0
 25 43  1  0
M  END
