
     RDKit          3D

 42 43  0  0  0  0  0  0  0  0999 V2000
   62.3880  135.9700   92.9470 C   0  0  0  0  0  0  0  0  0  0  0  0
   61.3370  137.0730   93.0210 C   0  0  0  0  0  0  0  0  0  0  0  0
   60.0670  136.5720   93.7010 C   0  0  0  0  0  0  0  0  0  0  0  0
   61.0040  137.5920   91.6360 C   0  0  0  0  0  0  0  0  0  0  0  0
   61.7040  137.4610   90.6410 O   0  0  0  0  0  0  0  0  0  0  0  0
   59.7950  138.2230   91.6500 O   0  0  0  0  0  0  0  0  0  0  0  0
   59.7670  139.5050   90.9950 C   0  0  0  0  0  0  0  0  0  0  0  0
   58.4420  139.7170   90.2490 C   0  0  2  0  0  0  0  0  0  0  0  0
   57.8680  141.1130   90.4850 C   0  0  2  0  0  0  0  0  0  0  0  0
   57.0020  140.8980   91.7150 C   0  0  2  0  0  0  0  0  0  0  0  0
   56.4060  139.5160   91.3980 C   0  0  1  0  0  0  0  0  0  0  0  0
   57.4680  138.7680   90.7610 O   0  0  0  0  0  0  0  0  0  0  0  0
   55.9200  138.8140   92.5790 N   0  0  0  0  0  0  0  0  0  0  0  0
   56.7850  138.2470   93.4880 C   0  0  0  0  0  0  0  0  0  0  0  0
   56.3330  137.6590   94.5930 C   0  0  0  0  0  0  0  0  0  0  0  0
   54.8660  137.6630   94.7800 C   0  0  0  0  0  0  0  0  0  0  0  0
   54.0510  138.2150   93.9280 N   0  0  0  0  0  0  0  0  0  0  0  0
   54.5400  138.8180   92.7930 C   0  0  0  0  0  0  0  0  0  0  0  0
   53.7680  139.3280   91.9840 O   0  0  0  0  0  0  0  0  0  0  0  0
   54.3360  137.0630   95.9130 N   0  0  0  0  0  0  0  0  0  0  0  0
   52.9810  136.7260   95.7770 O   0  0  0  0  0  0  0  0  0  0  0  0
   56.0640  141.9480   91.8870 O   0  0  0  0  0  0  0  0  0  0  0  0
   57.0130  141.5010   89.3960 O   0  0  0  0  0  0  0  0  0  0  0  0
   62.6753  135.6684   93.9651 H   0  0  0  0  0  0  0  0  0  0  0  0
   61.9731  135.1035   92.4113 H   0  0  0  0  0  0  0  0  0  0  0  0
   63.2735  136.3426   92.4113 H   0  0  0  0  0  0  0  0  0  0  0  0
   61.7579  137.8947   93.6191 H   0  0  0  0  0  0  0  0  0  0  0  0
   60.1918  136.6212   94.7928 H   0  0  0  0  0  0  0  0  0  0  0  0
   59.2170  137.2022   93.4003 H   0  0  0  0  0  0  0  0  0  0  0  0
   59.8762  135.5312   93.4003 H   0  0  0  0  0  0  0  0  0  0  0  0
   59.8847  140.2965   91.7498 H   0  0  0  0  0  0  0  0  0  0  0  0
   60.5885  139.5415   90.2643 H   0  0  0  0  0  0  0  0  0  0  0  0
   58.6399  139.5844   89.1751 H   0  0  0  0  0  0  0  0  0  0  0  0
   58.6442  141.8859   90.5858 H   0  0  0  0  0  0  0  0  0  0  0  0
   57.5212  140.9162   92.6846 H   0  0  0  0  0  0  0  0  0  0  0  0
   55.5227  139.6283   90.7521 H   0  0  0  0  0  0  0  0  0  0  0  0
   57.8679  138.2806   93.2976 H   0  0  0  0  0  0  0  0  0  0  0  0
   57.0115  137.1967   95.3251 H   0  0  0  0  0  0  0  0  0  0  0  0
   54.8821  136.8831   96.7676 H   0  0  0  0  0  0  0  0  0  0  0  0
   52.5745  136.6249   96.6740 H   0  0  0  0  0  0  0  0  0  0  0  0
   55.9212  142.1079   92.8535 H   0  0  0  0  0  0  0  0  0  0  0  0
   56.1730  141.8822   89.7556 H   0  0  0  0  0  0  0  0  0  0  0  0
  1  2  1  0
  2  3  1  0
  2  4  1  0
  4  5  2  0
  4  6  1  0
  6  7  1  0
  7  8  1  0
  8  9  1  0
  9 10  1  0
 10 11  1  0
 11 12  1  0
 11 13  1  0
 13 14  1  0
 14 15  2  0
 15 16  1  0
 16 17  2  0
 17 18  1  0
 18 19  2  0
 16 20  1  0
 20 21  1  0
 10 22  1  0
  9 23  1  0
 12  8  1  0
 18 13  1  0
  1 24  1  0
  1 25  1  0
  1 26  1  0
  2 27  1  0
  3 28  1  0
  3 29  1  0
  3 30  1  0
  7 31  1  0
  7 32  1  0
  8 33  1  6
  9 34  1  1
 10 35  1  1
 11 36  1  6
 14 37  1  0
 15 38  1  0
 20 39  1  0
 21 40  1  0
 22 41  1  0
 23 42  1  0
M  END
