
     RDKit          3D

 49 50  0  0  0  0  0  0  0  0999 V2000
   50.6120  140.2670   94.0410 C   0  0  0  0  0  0  0  0  0  0  0  0
   51.1040  140.1760   95.4830 C   0  0  0  0  0  0  0  0  0  0  0  0
   52.5460  140.4820   95.5940 N   0  0  0  0  0  0  0  0  0  0  0  0
   52.8610  141.7490   94.9000 C   0  0  0  0  0  0  0  0  0  0  0  0
   54.2730  141.7290   94.2970 C   0  0  0  0  0  0  0  0  0  0  0  0
   54.2700  141.0750   92.9080 C   0  0  0  0  0  0  0  0  0  0  0  0
   55.5300  140.2360   92.6500 C   0  0  0  0  0  0  0  0  0  0  0  0
   56.2070  140.5490   91.3170 C   0  0  0  0  0  0  0  0  0  0  0  0
   55.3270  138.7970   92.8450 N   0  0  0  0  0  0  0  0  0  0  0  0
   54.5690  138.1350   93.8130 C   0  0  0  0  0  0  0  0  0  0  0  0
   53.2760  137.6330   93.4700 C   0  0  0  0  0  0  0  0  0  0  0  0
   52.6940  137.7610   92.1840 C   0  0  0  0  0  0  0  0  0  0  0  0
   51.4200  137.2650   91.9060 C   0  0  0  0  0  0  0  0  0  0  0  0
   50.7090  136.6240   92.9090 C   0  0  0  0  0  0  0  0  0  0  0  0
   51.2660  136.4710   94.1740 C   0  0  0  0  0  0  0  0  0  0  0  0
   52.5330  136.9530   94.4690 C   0  0  0  0  0  0  0  0  0  0  0  0
   53.0000  136.7370   95.7040 N   0  0  0  0  0  0  0  0  0  0  0  0
   54.2400  137.1740   95.9850 C   0  0  0  0  0  0  0  0  0  0  0  0
   55.0470  137.8500   95.0890 C   0  0  0  0  0  0  0  0  0  0  0  0
   49.1370  136.0080   92.5820 Cl  0  0  0  0  0  0  0  0  0  0  0  0
   52.9490  140.5600   97.0230 C   0  0  0  0  0  0  0  0  0  0  0  0
   51.9720  139.7820   97.9210 C   0  0  0  0  0  0  0  0  0  0  0  0
   52.5520  138.5300   98.2870 O   0  0  0  0  0  0  0  0  0  0  0  0
   49.5304  140.4671   94.0346 H   0  0  0  0  0  0  0  0  0  0  0  0
   51.1389  141.0829   93.5246 H   0  0  0  0  0  0  0  0  0  0  0  0
   50.8122  139.3166   93.5246 H   0  0  0  0  0  0  0  0  0  0  0  0
   50.5400  140.8934   96.0971 H   0  0  0  0  0  0  0  0  0  0  0  0
   50.9465  139.1449   95.8324 H   0  0  0  0  0  0  0  0  0  0  0  0
   52.1304  141.9046   94.0925 H   0  0  0  0  0  0  0  0  0  0  0  0
   52.8135  142.5649   95.6363 H   0  0  0  0  0  0  0  0  0  0  0  0
   54.6403  142.7620   94.2072 H   0  0  0  0  0  0  0  0  0  0  0  0
   54.9278  141.1428   94.9585 H   0  0  0  0  0  0  0  0  0  0  0  0
   53.3887  140.4217   92.8277 H   0  0  0  0  0  0  0  0  0  0  0  0
   54.2460  141.8807   92.1594 H   0  0  0  0  0  0  0  0  0  0  0  0
   56.2360  140.5510   93.4325 H   0  0  0  0  0  0  0  0  0  0  0  0
   57.1910  141.0039   91.5034 H   0  0  0  0  0  0  0  0  0  0  0  0
   56.3357  139.6190   90.7438 H   0  0  0  0  0  0  0  0  0  0  0  0
   55.5819  141.2495   90.7438 H   0  0  0  0  0  0  0  0  0  0  0  0
   55.8129  138.1874   92.1718 H   0  0  0  0  0  0  0  0  0  0  0  0
   53.2604  138.2634   91.3860 H   0  0  0  0  0  0  0  0  0  0  0  0
   50.9846  137.3811   90.9026 H   0  0  0  0  0  0  0  0  0  0  0  0
   50.6898  135.9569   94.9573 H   0  0  0  0  0  0  0  0  0  0  0  0
   54.6378  136.9813   96.9923 H   0  0  0  0  0  0  0  0  0  0  0  0
   56.0606  138.1608   95.3825 H   0  0  0  0  0  0  0  0  0  0  0  0
   53.9566  140.1332   97.1352 H   0  0  0  0  0  0  0  0  0  0  0  0
   52.9381  141.6161   97.3303 H   0  0  0  0  0  0  0  0  0  0  0  0
   51.7629  140.3678   98.8282 H   0  0  0  0  0  0  0  0  0  0  0  0
   51.0347  139.6044   97.3734 H   0  0  0  0  0  0  0  0  0  0  0  0
   52.5855  138.4577   99.2738 H   0  0  0  0  0  0  0  0  0  0  0  0
  1  2  1  0
  2  3  1  0
  3  4  1  0
  4  5  1  0
  5  6  1  0
  6  7  1  0
  7  8  1  0
  7  9  1  0
  9 10  1  0
 10 11  2  0
 11 12  1  0
 12 13  2  0
 13 14  1  0
 14 15  2  0
 15 16  1  0
 16 17  2  0
 17 18  1  0
 18 19  2  0
 14 20  1  0
  3 21  1  0
 21 22  1  0
 22 23  1  0
 19 10  1  0
 16 11  1  0
  1 24  1  0
  1 25  1  0
  1 26  1  0
  2 27  1  0
  2 28  1  0
  4 29  1  0
  4 30  1  0
  5 31  1  0
  5 32  1  0
  6 33  1  0
  6 34  1  0
  7 35  1  0
  8 36  1  0
  8 37  1  0
  8 38  1  0
  9 39  1  0
 12 40  1  0
 13 41  1  0
 15 42  1  0
 18 43  1  0
 19 44  1  0
 21 45  1  0
 21 46  1  0
 22 47  1  0
 22 48  1  0
 23 49  1  0
M  END
