
     RDKit          3D

 51 52  0  0  0  0  0  0  0  0999 V2000
    5.6010   31.9190   19.9030 C   0  0  0  0  0  0  0  0  0  0  0  0
    6.1840   32.2570   21.1910 N   0  0  0  0  0  0  0  0  0  0  0  0
    7.4720   31.6520   21.4900 C   0  0  0  0  0  0  0  0  0  0  0  0
    5.5690   33.0450   22.1600 C   0  0  0  0  0  0  0  0  0  0  0  0
    6.1590   33.4040   23.1810 O   0  0  0  0  0  0  0  0  0  0  0  0
    4.1300   33.5190   21.9010 C   0  0  0  0  0  0  0  0  0  0  0  0
    3.1140   32.5200   21.9960 O   0  0  0  0  0  0  0  0  0  0  0  0
    3.0420   31.8900   23.2070 C   0  0  0  0  0  0  0  0  0  0  0  0
    2.9020   32.4580   24.2790 O   0  0  0  0  0  0  0  0  0  0  0  0
    3.1560   30.3970   22.9890 C   0  0  0  0  0  0  0  0  0  0  0  0
    4.5150   29.8230   23.3120 C   0  0  0  0  0  0  0  0  0  0  0  0
    5.2120   30.2540   24.4530 C   0  0  0  0  0  0  0  0  0  0  0  0
    6.4670   29.7230   24.7560 C   0  0  0  0  0  0  0  0  0  0  0  0
    7.0260   28.7690   23.9090 C   0  0  0  0  0  0  0  0  0  0  0  0
    6.3390   28.3070   22.7910 C   0  0  0  0  0  0  0  0  0  0  0  0
    5.0850   28.8380   22.4910 C   0  0  0  0  0  0  0  0  0  0  0  0
    8.2560   28.1820   24.2150 O   0  0  0  0  0  0  0  0  0  0  0  0
    9.2890   29.0820   24.3950 C   0  0  0  0  0  0  0  0  0  0  0  0
    9.6300   29.9800   23.6390 O   0  0  0  0  0  0  0  0  0  0  0  0
    9.9770   28.8060   25.6870 C   0  0  0  0  0  0  0  0  0  0  0  0
    9.5310   29.3140   26.9100 C   0  0  0  0  0  0  0  0  0  0  0  0
   10.2230   29.0200   28.0940 C   0  0  0  0  0  0  0  0  0  0  0  0
   11.3590   28.2030   28.0920 C   0  0  0  0  0  0  0  0  0  0  0  0
   11.8110   27.7220   26.8520 C   0  0  0  0  0  0  0  0  0  0  0  0
   11.1270   28.0100   25.6650 C   0  0  0  0  0  0  0  0  0  0  0  0
   12.1190   27.9160   29.2430 N   0  0  0  0  0  0  0  0  0  0  0  0
   12.2560   26.7300   29.8970 C   0  0  0  0  0  0  0  0  0  0  0  0
   13.0480   26.8650   30.9910 N   0  0  0  0  0  0  0  0  0  0  0  0
   11.7480   25.5920   29.5920 N   0  0  0  0  0  0  0  0  0  0  0  0
    4.6590   31.3729   20.0589 H   0  0  0  0  0  0  0  0  0  0  0  0
    5.4010   32.8412   19.3377 H   0  0  0  0  0  0  0  0  0  0  0  0
    6.3019   31.2872   19.3377 H   0  0  0  0  0  0  0  0  0  0  0  0
    7.6038   31.5901   22.5803 H   0  0  0  0  0  0  0  0  0  0  0  0
    7.5114   30.6412   21.0579 H   0  0  0  0  0  0  0  0  0  0  0  0
    8.2751   32.2670   21.0579 H   0  0  0  0  0  0  0  0  0  0  0  0
    3.8979   34.3055   22.6342 H   0  0  0  0  0  0  0  0  0  0  0  0
    4.1141   33.8589   20.8549 H   0  0  0  0  0  0  0  0  0  0  0  0
    2.4111   29.8981   23.6264 H   0  0  0  0  0  0  0  0  0  0  0  0
    2.9873   30.2219   21.9162 H   0  0  0  0  0  0  0  0  0  0  0  0
    4.7664   31.0142   25.1114 H   0  0  0  0  0  0  0  0  0  0  0  0
    7.0087   30.0545   25.6542 H   0  0  0  0  0  0  0  0  0  0  0  0
    6.7808   27.5301   22.1497 H   0  0  0  0  0  0  0  0  0  0  0  0
    4.5389   28.4824   21.6048 H   0  0  0  0  0  0  0  0  0  0  0  0
    8.6326   29.9477   26.9443 H   0  0  0  0  0  0  0  0  0  0  0  0
    9.8648   29.4409   29.0451 H   0  0  0  0  0  0  0  0  0  0  0  0
   12.7216   27.1061   26.8129 H   0  0  0  0  0  0  0  0  0  0  0  0
   11.4959   27.6081   24.7098 H   0  0  0  0  0  0  0  0  0  0  0  0
   13.2443   26.0493   31.5885 H   0  0  0  0  0  0  0  0  0  0  0  0
   13.4527   27.7831   31.2237 H   0  0  0  0  0  0  0  0  0  0  0  0
   11.9365   24.7691   30.1821 H   0  0  0  0  0  0  0  0  0  0  0  0
   11.1517   25.5013   28.7571 H   0  0  0  0  0  0  0  0  0  0  0  0
  1  2  1  0
  2  3  1  0
  2  4  1  0
  4  5  2  0
  4  6  1  0
  6  7  1  0
  7  8  1  0
  8  9  2  0
  8 10  1  0
 10 11  1  0
 11 12  2  0
 12 13  1  0
 13 14  2  0
 14 15  1  0
 15 16  2  0
 14 17  1  0
 17 18  1  0
 18 19  2  0
 18 20  1  0
 20 21  2  0
 21 22  1  0
 22 23  2  0
 23 24  1  0
 24 25  2  0
 23 26  1  0
 26 27  2  3
 27 28  1  0
 27 29  1  0
 16 11  1  0
 25 20  1  0
  1 30  1  0
  1 31  1  0
  1 32  1  0
  3 33  1  0
  3 34  1  0
  3 35  1  0
  6 36  1  0
  6 37  1  0
 10 38  1  0
 10 39  1  0
 12 40  1  0
 13 41  1  0
 15 42  1  0
 16 43  1  0
 21 44  1  0
 22 45  1  0
 24 46  1  0
 25 47  1  0
 28 48  1  0
 28 49  1  0
 29 50  1  0
 29 51  1  0
M  END
