
     RDKit          3D

 33 34  0  0  0  0  0  0  0  0999 V2000
   59.0760  140.5430   87.8530 C   0  0  0  0  0  0  0  0  0  0  0  0
   59.3350  139.1580   88.4400 C   0  0  2  0  0  0  0  0  0  0  0  0
   60.5240  139.2210   89.4110 C   0  0  0  0  0  0  0  0  0  0  0  0
   60.2470  138.4960   90.6350 N   0  0  0  0  0  0  0  0  0  0  0  0
   59.0920  138.5550   91.3640 C   0  0  0  0  0  0  0  0  0  0  0  0
   59.1720  137.8380   92.4650 N   0  0  0  0  0  0  0  0  0  0  0  0
   60.4340  137.2770   92.4320 C   0  0  0  0  0  0  0  0  0  0  0  0
   61.1180  136.4170   93.3060 C   0  0  0  0  0  0  0  0  0  0  0  0
   62.3680  136.0190   92.9740 N   0  0  0  0  0  0  0  0  0  0  0  0
   62.9100  136.4920   91.8300 C   0  0  0  0  0  0  0  0  0  0  0  0
   62.3610  137.3290   90.9250 N   0  0  0  0  0  0  0  0  0  0  0  0
   61.1160  137.6710   91.2920 C   0  0  0  0  0  0  0  0  0  0  0  0
   60.5700  135.9410   94.4900 N   0  0  0  0  0  0  0  0  0  0  0  0
   59.6730  138.2290   87.3990 O   0  0  0  0  0  0  0  0  0  0  0  0
   61.0590  138.2670   87.0290 C   0  0  0  0  0  0  0  0  0  0  0  0
   61.6260  136.5600   86.9090 P   0  0  0  0  0  0  0  0  0  0  0  0
   62.4700  136.2070   85.7310 O   0  0  0  0  0  0  0  0  0  0  0  0
   60.2880  135.6830   87.0370 O   0  0  0  0  0  0  0  0  0  0  0  0
   62.3180  136.2560   88.3260 O   0  0  0  0  0  0  0  0  0  0  0  0
   58.9405  141.2677   88.6693 H   0  0  0  0  0  0  0  0  0  0  0  0
   59.9333  140.8448   87.2333 H   0  0  0  0  0  0  0  0  0  0  0  0
   58.1676  140.5146   87.2333 H   0  0  0  0  0  0  0  0  0  0  0  0
   58.4223  138.8305   88.9593 H   0  0  0  0  0  0  0  0  0  0  0  0
   61.4064  138.7790   88.9252 H   0  0  0  0  0  0  0  0  0  0  0  0
   60.7060  140.2752   89.6670 H   0  0  0  0  0  0  0  0  0  0  0  0
   58.2037  139.1316   91.0666 H   0  0  0  0  0  0  0  0  0  0  0  0
   63.9316  136.1503   91.6076 H   0  0  0  0  0  0  0  0  0  0  0  0
   61.1173  135.3116   95.0943 H   0  0  0  0  0  0  0  0  0  0  0  0
   59.6163  136.2174   94.7638 H   0  0  0  0  0  0  0  0  0  0  0  0
   61.1763  138.7721   86.0589 H   0  0  0  0  0  0  0  0  0  0  0  0
   61.6470  138.8222   87.7747 H   0  0  0  0  0  0  0  0  0  0  0  0
   60.0751  135.5435   87.9937 H   0  0  0  0  0  0  0  0  0  0  0  0
   61.7062  136.5248   89.0564 H   0  0  0  0  0  0  0  0  0  0  0  0
  1  2  1  0
  2  3  1  0
  3  4  1  0
  4  5  1  0
  5  6  2  0
  6  7  1  0
  7  8  2  0
  8  9  1  0
  9 10  2  0
 10 11  1  0
 11 12  2  0
  8 13  1  0
  2 14  1  0
 14 15  1  0
 15 16  1  0
 16 17  2  0
 16 18  1  0
 16 19  1  0
 12  4  1  0
 12  7  1  0
  1 20  1  0
  1 21  1  0
  1 22  1  0
  2 23  1  1
  3 24  1  0
  3 25  1  0
  5 26  1  0
 10 27  1  0
 13 28  1  0
 13 29  1  0
 15 30  1  0
 15 31  1  0
 18 32  1  0
 19 33  1  0
M  END
