
     RDKit          3D

 60 61  0  0  0  0  0  0  0  0999 V2000
   50.7450  136.8340   92.7620 C   0  0  0  0  0  0  0  0  0  0  0  0
   50.0680  137.5150   91.5810 C   0  0  0  0  0  0  0  0  0  0  0  0
   50.8490  138.8260   91.4420 C   0  0  2  0  0  0  0  0  0  0  0  0
   52.1980  138.4810   91.9060 N   0  0  0  0  0  0  0  0  0  0  0  0
   52.2120  137.1790   92.5570 C   0  0  0  0  0  0  0  0  0  0  0  0
   53.2730  139.2490   91.5150 C   0  0  0  0  0  0  0  0  0  0  0  0
   53.0830  140.2770   90.8510 O   0  0  0  0  0  0  0  0  0  0  0  0
   54.7310  138.8030   91.7960 C   0  0  2  0  0  0  0  0  0  0  0  0
   55.1210  139.3250   93.1980 C   0  0  0  0  0  0  0  0  0  0  0  0
   55.3060  138.2040   94.2300 C   0  0  0  0  0  0  0  0  0  0  0  0
   54.6930  138.5930   95.5810 C   0  0  0  0  0  0  0  0  0  0  0  0
   53.3290  137.9500   95.8380 C   0  0  0  0  0  0  0  0  0  0  0  0
   53.4260  136.6010   96.3830 N   0  0  0  0  0  0  0  0  0  0  0  0
   55.7360  139.2260   90.7900 N   0  0  0  0  0  0  0  0  0  0  0  0
   56.9550  139.9120   91.3160 C   0  0  1  0  0  0  0  0  0  0  0  0
   58.2250  139.0420   91.2430 C   0  0  0  0  0  0  0  0  0  0  0  0
   58.2860  137.9470   92.3190 C   0  0  0  0  0  0  0  0  0  0  0  0
   59.6600  137.3950   92.5910 C   0  0  0  0  0  0  0  0  0  0  0  0
   59.9230  136.6880   93.7720 C   0  0  0  0  0  0  0  0  0  0  0  0
   61.2010  136.1870   94.0260 C   0  0  0  0  0  0  0  0  0  0  0  0
   62.2250  136.3810   93.1020 C   0  0  0  0  0  0  0  0  0  0  0  0
   61.9730  137.0780   91.9230 C   0  0  0  0  0  0  0  0  0  0  0  0
   60.6970  137.5820   91.6670 C   0  0  0  0  0  0  0  0  0  0  0  0
   57.0960  141.3070   90.7010 C   0  0  0  0  0  0  0  0  0  0  0  0
   57.3940  141.5410   89.5380 O   0  0  0  0  0  0  0  0  0  0  0  0
   57.0170  142.2960   91.6120 O   0  0  0  0  0  0  0  0  0  0  0  0
   50.1260  139.9470   92.2000 C   0  0  0  0  0  0  0  0  0  0  0  0
   49.4580  140.8300   91.6740 O   0  0  0  0  0  0  0  0  0  0  0  0
   50.2280  139.9320   93.5480 O   0  0  0  0  0  0  0  0  0  0  0  0
   50.3736  137.2353   93.7165 H   0  0  0  0  0  0  0  0  0  0  0  0
   50.5552  135.7514   92.8068 H   0  0  0  0  0  0  0  0  0  0  0  0
   50.1553  136.9047   90.6700 H   0  0  0  0  0  0  0  0  0  0  0  0
   48.9890  137.6680   91.7303 H   0  0  0  0  0  0  0  0  0  0  0  0
   50.9189  139.2333   90.4226 H   0  0  0  0  0  0  0  0  0  0  0  0
   52.7007  136.4302   91.9163 H   0  0  0  0  0  0  0  0  0  0  0  0
   52.7724  137.1929   93.5034 H   0  0  0  0  0  0  0  0  0  0  0  0
   54.7440  137.7046   91.7387 H   0  0  0  0  0  0  0  0  0  0  0  0
   56.0658  139.8819   93.1135 H   0  0  0  0  0  0  0  0  0  0  0  0
   54.2965  139.9618   93.5510 H   0  0  0  0  0  0  0  0  0  0  0  0
   54.8146  137.2914   93.8616 H   0  0  0  0  0  0  0  0  0  0  0  0
   56.3833  138.0320   94.3708 H   0  0  0  0  0  0  0  0  0  0  0  0
   55.3819  138.2799   96.3794 H   0  0  0  0  0  0  0  0  0  0  0  0
   54.5404  139.6823   95.5663 H   0  0  0  0  0  0  0  0  0  0  0  0
   52.7754  138.5771   96.5523 H   0  0  0  0  0  0  0  0  0  0  0  0
   52.8136  137.8760   94.8691 H   0  0  0  0  0  0  0  0  0  0  0  0
   53.4228  136.6454   97.4120 H   0  0  0  0  0  0  0  0  0  0  0  0
   52.6230  136.0420   96.0610 H   0  0  0  0  0  0  0  0  0  0  0  0
   56.0445  138.3846   90.2823 H   0  0  0  0  0  0  0  0  0  0  0  0
   56.8194  140.0637   92.3970 H   0  0  0  0  0  0  0  0  0  0  0  0
   58.2596  138.5601   90.2548 H   0  0  0  0  0  0  0  0  0  0  0  0
   59.0823  139.7095   91.4146 H   0  0  0  0  0  0  0  0  0  0  0  0
   57.8964  138.3690   93.2572 H   0  0  0  0  0  0  0  0  0  0  0  0
   57.6887  137.1068   91.9353 H   0  0  0  0  0  0  0  0  0  0  0  0
   59.1174  136.5268   94.5035 H   0  0  0  0  0  0  0  0  0  0  0  0
   61.3998  135.6377   94.9581 H   0  0  0  0  0  0  0  0  0  0  0  0
   63.2311  135.9843   93.3032 H   0  0  0  0  0  0  0  0  0  0  0  0
   62.7809  137.2315   91.1924 H   0  0  0  0  0  0  0  0  0  0  0  0
   60.5038  138.1301   90.7331 H   0  0  0  0  0  0  0  0  0  0  0  0
   57.0952  143.2404   91.3254 H   0  0  0  0  0  0  0  0  0  0  0  0
   49.7807  140.6323   94.0861 H   0  0  0  0  0  0  0  0  0  0  0  0
  1  2  1  0
  2  3  1  0
  3  4  1  0
  4  5  1  0
  4  6  1  0
  6  7  2  0
  6  8  1  0
  8  9  1  0
  9 10  1  0
 10 11  1  0
 11 12  1  0
 12 13  1  0
  8 14  1  0
 14 15  1  0
 15 16  1  0
 16 17  1  0
 17 18  1  0
 18 19  2  0
 19 20  1  0
 20 21  2  0
 21 22  1  0
 22 23  2  0
 15 24  1  0
 24 25  2  0
 24 26  1  0
  3 27  1  0
 27 28  2  0
 27 29  1  0
  5  1  1  0
 23 18  1  0
  1 30  1  0
  1 31  1  0
  2 32  1  0
  2 33  1  0
  3 34  1  6
  5 35  1  0
  5 36  1  0
  8 37  1  1
  9 38  1  0
  9 39  1  0
 10 40  1  0
 10 41  1  0
 11 42  1  0
 11 43  1  0
 12 44  1  0
 12 45  1  0
 13 46  1  0
 13 47  1  0
 14 48  1  0
 15 49  1  1
 16 50  1  0
 16 51  1  0
 17 52  1  0
 17 53  1  0
 19 54  1  0
 20 55  1  0
 21 56  1  0
 22 57  1  0
 23 58  1  0
 26 59  1  0
 29 60  1  0
M  END
