
     RDKit          3D

 56 59  0  0  0  0  0  0  0  0999 V2000
   55.3810  141.8300   92.6310 C   0  0  0  0  0  0  0  0  0  0  0  0
   54.6770  140.4980   92.3150 C   0  0  2  0  0  0  0  0  0  0  0  0
   53.1650  140.5990   92.6330 C   0  0  1  0  0  0  0  0  0  0  0  0
   52.2590  139.6300   91.8450 C   0  0  1  0  0  0  0  0  0  0  0  0
   50.7400  139.9060   92.1350 C   0  0  1  0  0  0  0  0  0  0  0  0
   49.8830  138.8310   91.4040 C   0  0  1  0  0  0  0  0  0  0  0  0
   50.1660  137.5040   92.1240 C   0  0  0  0  0  0  0  0  0  0  0  0
   50.4930  136.4910   91.4990 O   0  0  0  0  0  0  0  0  0  0  0  0
   50.0150  137.4660   93.6080 C   0  0  0  0  0  0  0  0  0  0  0  0
   50.0830  138.6330   94.2880 C   0  0  0  0  0  0  0  0  0  0  0  0
   50.3780  139.9810   93.6470 C   0  0  1  0  0  0  0  0  0  0  0  0
   51.4950  140.7040   94.4500 C   0  0  0  0  0  0  0  0  0  0  0  0
   51.2820  141.5730   95.2930 O   0  0  0  0  0  0  0  0  0  0  0  0
   52.8740  140.3220   94.0700 C   0  0  0  0  0  0  0  0  0  0  0  0
   53.6530  139.6010   94.8880 C   0  0  0  0  0  0  0  0  0  0  0  0
   54.9090  139.0010   94.3680 C   0  0  0  0  0  0  0  0  0  0  0  0
   55.3710  139.3880   93.0890 C   0  0  0  0  0  0  0  0  0  0  0  0
   56.5290  138.8000   92.5480 C   0  0  0  0  0  0  0  0  0  0  0  0
   57.2330  137.8350   93.2610 C   0  0  0  0  0  0  0  0  0  0  0  0
   56.7990  137.4520   94.5260 C   0  0  0  0  0  0  0  0  0  0  0  0
   55.6510  138.0320   95.0700 C   0  0  0  0  0  0  0  0  0  0  0  0
   55.2400  137.6400   96.3210 O   0  0  0  0  0  0  0  0  0  0  0  0
   53.2390  139.2740   96.1590 O   0  0  0  0  0  0  0  0  0  0  0  0
   49.1910  140.7720   93.7990 O   0  0  0  0  0  0  0  0  0  0  0  0
   49.8540  138.7190   95.6590 O   0  0  0  0  0  0  0  0  0  0  0  0
   49.7670  136.1930   94.3430 C   0  0  0  0  0  0  0  0  0  0  0  0
   50.6740  135.4100   94.6180 O   0  0  0  0  0  0  0  0  0  0  0  0
   48.4850  135.9210   94.6960 N   0  0  0  0  0  0  0  0  0  0  0  0
   48.4090  139.0420   91.3460 N   0  0  0  0  0  0  0  0  0  0  0  0
   47.6750  137.7770   91.4950 C   0  0  0  0  0  0  0  0  0  0  0  0
   47.9990  139.6680   90.0820 C   0  0  0  0  0  0  0  0  0  0  0  0
   52.4710  139.8050   90.4430 O   0  0  0  0  0  0  0  0  0  0  0  0
   55.4492  141.9590   93.7213 H   0  0  0  0  0  0  0  0  0  0  0  0
   56.3925  141.8217   92.1988 H   0  0  0  0  0  0  0  0  0  0  0  0
   54.8044  142.6611   92.1988 H   0  0  0  0  0  0  0  0  0  0  0  0
   54.7503  140.2640   91.2427 H   0  0  0  0  0  0  0  0  0  0  0  0
   52.9360  141.6348   92.3419 H   0  0  0  0  0  0  0  0  0  0  0  0
   52.5144  138.6077   92.1607 H   0  0  0  0  0  0  0  0  0  0  0  0
   50.5142  140.9097   91.7456 H   0  0  0  0  0  0  0  0  0  0  0  0
   50.1824  138.8685   90.3462 H   0  0  0  0  0  0  0  0  0  0  0  0
   56.8810  139.1062   91.5519 H   0  0  0  0  0  0  0  0  0  0  0  0
   58.1321  137.3752   92.8249 H   0  0  0  0  0  0  0  0  0  0  0  0
   57.3580  136.6951   95.0957 H   0  0  0  0  0  0  0  0  0  0  0  0
   54.4286  138.0398   96.7233 H   0  0  0  0  0  0  0  0  0  0  0  0
   53.8279  138.7405   96.7495 H   0  0  0  0  0  0  0  0  0  0  0  0
   49.0002  140.8991   94.7621 H   0  0  0  0  0  0  0  0  0  0  0  0
   49.9143  139.5946   96.1170 H   0  0  0  0  0  0  0  0  0  0  0  0
   48.2641  135.0534   95.2052 H   0  0  0  0  0  0  0  0  0  0  0  0
   47.7330  136.5822   94.4547 H   0  0  0  0  0  0  0  0  0  0  0  0
   47.5447  137.5524   92.5639 H   0  0  0  0  0  0  0  0  0  0  0  0
   46.6887  137.8668   91.0163 H   0  0  0  0  0  0  0  0  0  0  0  0
   48.2424  136.9653   91.0163 H   0  0  0  0  0  0  0  0  0  0  0  0
   47.4077  140.5708   90.2948 H   0  0  0  0  0  0  0  0  0  0  0  0
   48.8925  139.9431   89.5023 H   0  0  0  0  0  0  0  0  0  0  0  0
   47.3898  138.9589   89.5023 H   0  0  0  0  0  0  0  0  0  0  0  0
   53.2263  140.4285   90.2988 H   0  0  0  0  0  0  0  0  0  0  0  0
  1  2  1  0
  2  3  1  0
  3  4  1  0
  4  5  1  0
  5  6  1  0
  6  7  1  0
  7  8  2  0
  7  9  1  0
  9 10  2  0
 10 11  1  0
 11 12  1  0
 12 13  2  0
 12 14  1  0
 14 15  2  0
 15 16  1  0
 16 17  2  0
 17 18  1  0
 18 19  2  0
 19 20  1  0
 20 21  2  0
 21 22  1  0
 15 23  1  0
 11 24  1  6
 10 25  1  0
  9 26  1  0
 26 27  2  0
 26 28  1  0
  6 29  1  0
 29 30  1  0
 29 31  1  0
  4 32  1  0
 17  2  1  0
 14  3  1  0
 11  5  1  0
 21 16  1  0
  1 33  1  0
  1 34  1  0
  1 35  1  0
  2 36  1  6
  3 37  1  6
  4 38  1  1
  5 39  1  6
  6 40  1  6
 18 41  1  0
 19 42  1  0
 20 43  1  0
 22 44  1  0
 23 45  1  0
 24 46  1  0
 25 47  1  0
 28 48  1  0
 28 49  1  0
 30 50  1  0
 30 51  1  0
 30 52  1  0
 31 53  1  0
 31 54  1  0
 31 55  1  0
 32 56  1  0
M  END
