
     RDKit          3D

 82 84  0  0  0  0  0  0  0  0999 V2000
   10.4050   33.6110   25.4990 C   0  0  0  0  0  0  0  0  0  0  0  0
    9.4730   32.6390   24.8150 C   0  0  0  0  0  0  0  0  0  0  0  0
    9.8910   32.1310   23.4400 C   0  0  2  0  0  0  0  0  0  0  0  0
    8.7790   33.1280   23.5480 C   0  0  1  0  0  0  0  0  0  0  0  0
    7.5430   32.5110   22.9280 C   0  0  2  0  0  0  0  0  0  0  0  0
    7.9150   31.1090   22.7060 N   0  0  0  0  0  0  0  0  0  0  0  0
    9.3510   30.8950   22.7880 C   0  0  0  0  0  0  0  0  0  0  0  0
    7.0930   30.0850   22.2920 C   0  0  0  0  0  0  0  0  0  0  0  0
    7.5610   28.9920   21.9520 O   0  0  0  0  0  0  0  0  0  0  0  0
    5.5560   30.3090   22.2480 C   0  0  2  0  0  0  0  0  0  0  0  0
    4.8920   30.3930   23.6590 C   0  0  0  0  0  0  0  0  0  0  0  0
    3.5760   29.5950   23.7540 C   0  0  0  0  0  0  0  0  0  0  0  0
    4.5800   31.8730   23.9790 C   0  0  0  0  0  0  0  0  0  0  0  0
    5.8530   29.8720   24.7430 C   0  0  0  0  0  0  0  0  0  0  0  0
    5.0260   29.1830   21.4730 N   0  0  0  0  0  0  0  0  0  0  0  0
    4.5780   29.3630   20.1890 C   0  0  0  0  0  0  0  0  0  0  0  0
    4.4030   30.4580   19.6750 O   0  0  0  0  0  0  0  0  0  0  0  0
    4.3380   28.1540   19.5890 N   0  0  0  0  0  0  0  0  0  0  0  0
    3.8540   27.9960   18.2100 C   0  0  0  0  0  0  0  0  0  0  0  0
    4.9110   28.5990   17.2660 C   0  0  0  0  0  0  0  0  0  0  0  0
    2.5380   28.7610   18.0010 C   0  0  0  0  0  0  0  0  0  0  0  0
    3.6700   26.5130   17.8540 C   0  0  0  0  0  0  0  0  0  0  0  0
    7.2380   33.2120   21.5770 C   0  0  0  0  0  0  0  0  0  0  0  0
    8.1070   33.5780   20.7880 O   0  0  0  0  0  0  0  0  0  0  0  0
    5.8960   33.4570   21.3700 N   0  0  0  0  0  0  0  0  0  0  0  0
    5.4360   34.1590   20.1570 C   0  0  0  0  0  0  0  0  0  0  0  0
    5.2490   33.1110   19.0530 C   0  0  0  0  0  0  0  0  0  0  0  0
    4.4180   33.5200   17.8410 C   0  0  0  0  0  0  0  0  0  0  0  0
    3.0350   32.8870   17.5330 C   0  0  0  0  0  0  0  0  0  0  0  0
    3.3280   33.1570   16.0410 C   0  0  0  0  0  0  0  0  0  0  0  0
    4.8310   33.1360   16.3970 C   0  0  0  0  0  0  0  0  0  0  0  0
    4.1240   34.8140   20.5680 C   0  0  0  0  0  0  0  0  0  0  0  0
    3.7940   35.9580   20.2510 O   0  0  0  0  0  0  0  0  0  0  0  0
    3.1410   33.9570   21.3730 C   0  0  0  0  0  0  0  0  0  0  0  0
    2.9280   32.7870   21.1120 O   0  0  0  0  0  0  0  0  0  0  0  0
    2.5560   34.6120   22.4230 N   0  0  0  0  0  0  0  0  0  0  0  0
    8.7530   31.7360   25.7800 C   0  0  0  0  0  0  0  0  0  0  0  0
   10.3062   33.5080   26.5897 H   0  0  0  0  0  0  0  0  0  0  0  0
   11.4421   33.3949   25.2027 H   0  0  0  0  0  0  0  0  0  0  0  0
   10.1455   34.6381   25.2027 H   0  0  0  0  0  0  0  0  0  0  0  0
   10.9083   32.0024   23.0419 H   0  0  0  0  0  0  0  0  0  0  0  0
    8.4968   34.1593   23.2897 H   0  0  0  0  0  0  0  0  0  0  0  0
    6.6459   32.6100   23.5568 H   0  0  0  0  0  0  0  0  0  0  0  0
    9.5753   30.0071   23.3973 H   0  0  0  0  0  0  0  0  0  0  0  0
    9.7997   30.7201   21.7990 H   0  0  0  0  0  0  0  0  0  0  0  0
    5.3263   31.2827   21.7906 H   0  0  0  0  0  0  0  0  0  0  0  0
    3.3177   29.4384   24.8117 H   0  0  0  0  0  0  0  0  0  0  0  0
    2.7701   30.1567   23.2590 H   0  0  0  0  0  0  0  0  0  0  0  0
    3.7014   28.6207   23.2590 H   0  0  0  0  0  0  0  0  0  0  0  0
    4.5503   32.0140   25.0695 H   0  0  0  0  0  0  0  0  0  0  0  0
    5.3627   32.5143   23.5476 H   0  0  0  0  0  0  0  0  0  0  0  0
    3.6050   32.1438   23.5476 H   0  0  0  0  0  0  0  0  0  0  0  0
    5.4399   30.0960   25.7376 H   0  0  0  0  0  0  0  0  0  0  0  0
    5.9748   28.7843   24.6330 H   0  0  0  0  0  0  0  0  0  0  0  0
    6.8309   30.3635   24.6330 H   0  0  0  0  0  0  0  0  0  0  0  0
    4.9896   28.2454   21.8978 H   0  0  0  0  0  0  0  0  0  0  0  0
    4.5079   27.3007   20.1404 H   0  0  0  0  0  0  0  0  0  0  0  0
    5.7148   29.0575   17.8607 H   0  0  0  0  0  0  0  0  0  0  0  0
    5.3316   27.8049   16.6315 H   0  0  0  0  0  0  0  0  0  0  0  0
    4.4415   29.3652   16.6315 H   0  0  0  0  0  0  0  0  0  0  0  0
    2.1020   29.0145   18.9786 H   0  0  0  0  0  0  0  0  0  0  0  0
    2.7363   29.6846   17.4374 H   0  0  0  0  0  0  0  0  0  0  0  0
    1.8336   28.1316   17.4374 H   0  0  0  0  0  0  0  0  0  0  0  0
    3.5965   25.9205   18.7779 H   0  0  0  0  0  0  0  0  0  0  0  0
    2.7496   26.3889   17.2646 H   0  0  0  0  0  0  0  0  0  0  0  0
    4.5322   26.1677   17.2646 H   0  0  0  0  0  0  0  0  0  0  0  0
    5.2077   33.1462   22.0704 H   0  0  0  0  0  0  0  0  0  0  0  0
    6.1336   34.9164   19.7702 H   0  0  0  0  0  0  0  0  0  0  0  0
    6.2486   32.8300   18.6900 H   0  0  0  0  0  0  0  0  0  0  0  0
    4.6806   32.2969   19.5264 H   0  0  0  0  0  0  0  0  0  0  0  0
    4.5072   34.5505   18.2152 H   0  0  0  0  0  0  0  0  0  0  0  0
    2.9466   31.8234   17.7991 H   0  0  0  0  0  0  0  0  0  0  0  0
    2.1131   33.2410   18.0174 H   0  0  0  0  0  0  0  0  0  0  0  0
    3.0076   32.3557   15.3589 H   0  0  0  0  0  0  0  0  0  0  0  0
    2.8731   34.0048   15.5079 H   0  0  0  0  0  0  0  0  0  0  0  0
    5.3120   32.1512   16.3029 H   0  0  0  0  0  0  0  0  0  0  0  0
    5.5704   33.7203   15.8297 H   0  0  0  0  0  0  0  0  0  0  0  0
    1.8799   34.1201   23.0245 H   0  0  0  0  0  0  0  0  0  0  0  0
    2.7919   35.5967   22.6116 H   0  0  0  0  0  0  0  0  0  0  0  0
    8.9922   32.0359   26.8109 H   0  0  0  0  0  0  0  0  0  0  0  0
    7.6681   31.8160   25.6172 H   0  0  0  0  0  0  0  0  0  0  0  0
    9.0725   30.6961   25.6172 H   0  0  0  0  0  0  0  0  0  0  0  0
  1  2  1  0
  2  3  1  0
  3  4  1  0
  4  5  1  0
  5  6  1  0
  6  7  1  0
  6  8  1  0
  8  9  2  0
  8 10  1  0
 10 11  1  0
 11 12  1  0
 11 13  1  0
 11 14  1  0
 10 15  1  0
 15 16  1  0
 16 17  2  0
 16 18  1  0
 18 19  1  0
 19 20  1  0
 19 21  1  0
 19 22  1  0
  5 23  1  0
 23 24  2  0
 23 25  1  0
 25 26  1  0
 26 27  1  0
 27 28  1  0
 28 29  1  0
 29 30  1  0
 30 31  1  0
 26 32  1  0
 32 33  2  0
 32 34  1  0
 34 35  2  0
 34 36  1  0
  2 37  1  0
  4  2  1  0
  7  3  1  0
 31 28  1  0
  1 38  1  0
  1 39  1  0
  1 40  1  0
  3 41  1  6
  4 42  1  6
  5 43  1  1
  7 44  1  0
  7 45  1  0
 10 46  1  6
 12 47  1  0
 12 48  1  0
 12 49  1  0
 13 50  1  0
 13 51  1  0
 13 52  1  0
 14 53  1  0
 14 54  1  0
 14 55  1  0
 15 56  1  0
 18 57  1  0
 20 58  1  0
 20 59  1  0
 20 60  1  0
 21 61  1  0
 21 62  1  0
 21 63  1  0
 22 64  1  0
 22 65  1  0
 22 66  1  0
 25 67  1  0
 26 68  1  0
 27 69  1  0
 27 70  1  0
 28 71  1  0
 29 72  1  0
 29 73  1  0
 30 74  1  0
 30 75  1  0
 31 76  1  0
 31 77  1  0
 36 78  1  0
 36 79  1  0
 37 80  1  0
 37 81  1  0
 37 82  1  0
M  END
