
     RDKit          3D

 45 48  0  0  0  0  0  0  0  0999 V2000
   11.5410   33.7040   27.0400 C   0  0  0  0  0  0  0  0  0  0  0  0
   10.6560   32.9660   26.0320 C   0  0  0  0  0  0  0  0  0  0  0  0
   10.3810   31.5150   26.4770 C   0  0  0  0  0  0  0  0  0  0  0  0
    9.8020   31.4600   27.9020 C   0  0  0  0  0  0  0  0  0  0  0  0
   10.6860   32.2100   28.9000 C   0  0  0  0  0  0  0  0  0  0  0  0
   10.9360   33.6600   28.4540 C   0  0  0  0  0  0  0  0  0  0  0  0
   11.7910   34.4170   29.4570 C   0  0  0  0  0  0  0  0  0  0  0  0
   12.0680   33.8410   30.7070 C   0  0  0  0  0  0  0  0  0  0  0  0
   12.8520   34.5160   31.6460 C   0  0  0  0  0  0  0  0  0  0  0  0
   13.3660   35.7730   31.3440 C   0  0  0  0  0  0  0  0  0  0  0  0
   13.1030   36.3610   30.1100 C   0  0  0  0  0  0  0  0  0  0  0  0
   12.3180   35.6870   29.1700 C   0  0  0  0  0  0  0  0  0  0  0  0
   14.3310   36.6050   32.4990 Cl  0  0  0  0  0  0  0  0  0  0  0  0
    9.5420   30.7270   25.4770 C   0  0  0  0  0  0  0  0  0  0  0  0
    9.6870   29.4140   25.1980 C   0  0  0  0  0  0  0  0  0  0  0  0
    8.8740   28.7050   24.1840 C   0  0  0  0  0  0  0  0  0  0  0  0
    8.9870   27.3160   23.9980 C   0  0  0  0  0  0  0  0  0  0  0  0
    8.2390   26.6510   23.0190 C   0  0  0  0  0  0  0  0  0  0  0  0
    7.3650   27.3630   22.2040 C   0  0  0  0  0  0  0  0  0  0  0  0
    7.2370   28.7390   22.3700 C   0  0  0  0  0  0  0  0  0  0  0  0
    7.9840   29.3960   23.3580 C   0  0  0  0  0  0  0  0  0  0  0  0
    7.8370   30.8440   23.5300 C   0  0  0  0  0  0  0  0  0  0  0  0
    7.2260   31.5280   22.7200 O   0  0  0  0  0  0  0  0  0  0  0  0
    8.4630   31.4760   24.7580 C   0  0  0  0  0  0  0  0  0  0  0  0
    8.0670   32.5720   25.1340 O   0  0  0  0  0  0  0  0  0  0  0  0
   10.6030   28.5950   25.8310 O   0  0  0  0  0  0  0  0  0  0  0  0
   12.5333   33.2296   27.0601 H   0  0  0  0  0  0  0  0  0  0  0  0
   11.6183   34.7561   26.7285 H   0  0  0  0  0  0  0  0  0  0  0  0
    9.6983   33.4991   25.9397 H   0  0  0  0  0  0  0  0  0  0  0  0
   11.1827   32.9369   25.0667 H   0  0  0  0  0  0  0  0  0  0  0  0
   11.3572   31.0085   26.5011 H   0  0  0  0  0  0  0  0  0  0  0  0
    8.8014   31.9168   27.8983 H   0  0  0  0  0  0  0  0  0  0  0  0
    9.7523   30.4058   28.2120 H   0  0  0  0  0  0  0  0  0  0  0  0
   10.1890   32.2187   29.8813 H   0  0  0  0  0  0  0  0  0  0  0  0
   11.6561   31.6946   28.9564 H   0  0  0  0  0  0  0  0  0  0  0  0
    9.9627   34.1710   28.4160 H   0  0  0  0  0  0  0  0  0  0  0  0
   11.6633   32.8474   30.9498 H   0  0  0  0  0  0  0  0  0  0  0  0
   13.0624   34.0545   32.6221 H   0  0  0  0  0  0  0  0  0  0  0  0
   13.5123   37.3546   29.8749 H   0  0  0  0  0  0  0  0  0  0  0  0
   12.1111   36.1555   28.1965 H   0  0  0  0  0  0  0  0  0  0  0  0
    9.6762   26.7408   24.6337 H   0  0  0  0  0  0  0  0  0  0  0  0
    8.3427   25.5631   22.8940 H   0  0  0  0  0  0  0  0  0  0  0  0
    6.7786   26.8417   21.4330 H   0  0  0  0  0  0  0  0  0  0  0  0
    6.5509   29.3100   21.7271 H   0  0  0  0  0  0  0  0  0  0  0  0
   10.6646   27.6381   25.5846 H   0  0  0  0  0  0  0  0  0  0  0  0
  1  2  1  0
  2  3  1  0
  3  4  1  0
  4  5  1  0
  5  6  1  0
  6  7  1  0
  7  8  2  0
  8  9  1  0
  9 10  2  0
 10 11  1  0
 11 12  2  0
 10 13  1  0
  3 14  1  0
 14 15  2  0
 15 16  1  0
 16 17  2  0
 17 18  1  0
 18 19  2  0
 19 20  1  0
 20 21  2  0
 21 22  1  0
 22 23  2  0
 22 24  1  0
 24 25  2  0
 15 26  1  0
  6  1  1  0
 12  7  1  0
 24 14  1  0
 21 16  1  0
  1 27  1  0
  1 28  1  0
  2 29  1  0
  2 30  1  0
  3 31  1  0
  4 32  1  0
  4 33  1  0
  5 34  1  0
  5 35  1  0
  6 36  1  0
  8 37  1  0
  9 38  1  0
 11 39  1  0
 12 40  1  0
 17 41  1  0
 18 42  1  0
 19 43  1  0
 20 44  1  0
 26 45  1  0
M  END
