
     RDKit          3D

 67 69  0  0  0  0  0  0  0  0999 V2000
   54.6410  136.7010   96.9880 C   0  0  0  0  0  0  0  0  0  0  0  0
   53.8050  137.8380   96.4510 C   0  0  0  0  0  0  0  0  0  0  0  0
   53.0520  137.5890   95.1530 C   0  0  2  0  0  0  0  0  0  0  0  0
   54.2550  138.4720   95.1400 C   0  0  1  0  0  0  0  0  0  0  0  0
   53.8350  139.8450   94.6670 C   0  0  2  0  0  0  0  0  0  0  0  0
   52.3690  139.7410   94.4960 N   0  0  0  0  0  0  0  0  0  0  0  0
   51.8670  138.3870   94.7250 C   0  0  0  0  0  0  0  0  0  0  0  0
   51.5800  140.8720   94.4930 C   0  0  0  0  0  0  0  0  0  0  0  0
   52.0930  141.9970   94.5700 O   0  0  0  0  0  0  0  0  0  0  0  0
   50.0430  140.7280   94.3260 C   0  0  2  0  0  0  0  0  0  0  0  0
   49.3090  140.3780   95.6620 C   0  0  0  0  0  0  0  0  0  0  0  0
   48.0230  141.2150   95.8070 C   0  0  0  0  0  0  0  0  0  0  0  0
   50.1820  140.6090   96.9100 C   0  0  0  0  0  0  0  0  0  0  0  0
   48.8970  138.8880   95.6340 C   0  0  0  0  0  0  0  0  0  0  0  0
   49.8570  139.6900   93.3060 N   0  0  0  0  0  0  0  0  0  0  0  0
   49.1970  139.9830   92.1130 C   0  0  0  0  0  0  0  0  0  0  0  0
   48.5910  141.0450   91.9590 O   0  0  0  0  0  0  0  0  0  0  0  0
   49.2720  138.8710   91.0410 C   0  0  0  0  0  0  0  0  0  0  0  0
   50.0830  137.8450   91.4340 F   0  0  0  0  0  0  0  0  0  0  0  0
   48.0560  138.3180   90.7820 F   0  0  0  0  0  0  0  0  0  0  0  0
   49.7660  139.3180   89.8550 F   0  0  0  0  0  0  0  0  0  0  0  0
   54.5470  140.2710   93.3490 C   0  0  0  0  0  0  0  0  0  0  0  0
   54.5260  141.4160   92.9020 O   0  0  0  0  0  0  0  0  0  0  0  0
   55.1290  139.2380   92.6430 N   0  0  0  0  0  0  0  0  0  0  0  0
   55.6710  139.4380   91.3040 C   0  0  1  0  0  0  0  0  0  0  0  0
   57.2020  139.5210   91.3950 C   0  0  0  0  0  0  0  0  0  0  0  0
   57.8870  138.1960   91.7390 C   0  0  2  0  0  0  0  0  0  0  0  0
   57.9170  137.8200   93.2250 C   0  0  0  0  0  0  0  0  0  0  0  0
   59.1630  136.9630   93.3490 C   0  0  0  0  0  0  0  0  0  0  0  0
   60.0420  137.5250   92.3710 N   0  0  0  0  0  0  0  0  0  0  0  0
   59.3680  138.2360   91.4030 C   0  0  0  0  0  0  0  0  0  0  0  0
   59.8810  138.7630   90.4310 O   0  0  0  0  0  0  0  0  0  0  0  0
   55.2380  138.3440   90.4050 C   0  0  0  0  0  0  0  0  0  0  0  0
   54.8630  137.4970   89.7040 N   0  0  0  0  0  0  0  0  0  0  0  0
   53.1950  138.6880   97.5390 C   0  0  0  0  0  0  0  0  0  0  0  0
   54.6255  136.7221   98.0877 H   0  0  0  0  0  0  0  0  0  0  0  0
   54.2296  135.7443   96.6338 H   0  0  0  0  0  0  0  0  0  0  0  0
   55.6768  136.8084   96.6338 H   0  0  0  0  0  0  0  0  0  0  0  0
   52.6791  136.6390   94.7425 H   0  0  0  0  0  0  0  0  0  0  0  0
   55.2730  138.5454   94.7297 H   0  0  0  0  0  0  0  0  0  0  0  0
   54.1187  140.6269   95.3868 H   0  0  0  0  0  0  0  0  0  0  0  0
   51.1003  138.3897   95.5137 H   0  0  0  0  0  0  0  0  0  0  0  0
   51.3976  137.9681   93.8227 H   0  0  0  0  0  0  0  0  0  0  0  0
   49.5937  141.6849   94.0219 H   0  0  0  0  0  0  0  0  0  0  0  0
   47.7988  141.3609   96.8740 H   0  0  0  0  0  0  0  0  0  0  0  0
   48.1661  142.1935   95.3253 H   0  0  0  0  0  0  0  0  0  0  0  0
   47.1862  140.6880   95.3253 H   0  0  0  0  0  0  0  0  0  0  0  0
   49.5775  140.4491   97.8150 H   0  0  0  0  0  0  0  0  0  0  0  0
   51.0257  139.9032   96.9031 H   0  0  0  0  0  0  0  0  0  0  0  0
   50.5662  141.6397   96.9031 H   0  0  0  0  0  0  0  0  0  0  0  0
   48.7943  138.5166   96.6643 H   0  0  0  0  0  0  0  0  0  0  0  0
   47.9361  138.7831   95.1089 H   0  0  0  0  0  0  0  0  0  0  0  0
   49.6675  138.3043   95.1089 H   0  0  0  0  0  0  0  0  0  0  0  0
   50.2161  138.7390   93.4721 H   0  0  0  0  0  0  0  0  0  0  0  0
   55.1819  138.3031   93.0721 H   0  0  0  0  0  0  0  0  0  0  0  0
   55.2902  140.3789   90.8801 H   0  0  0  0  0  0  0  0  0  0  0  0
   57.5864  139.8651   90.4235 H   0  0  0  0  0  0  0  0  0  0  0  0
   57.4308  140.2157   92.2166 H   0  0  0  0  0  0  0  0  0  0  0  0
   57.2827  137.4815   91.1608 H   0  0  0  0  0  0  0  0  0  0  0  0
   57.9929  138.7177   93.8562 H   0  0  0  0  0  0  0  0  0  0  0  0
   57.0051  137.2999   93.5536 H   0  0  0  0  0  0  0  0  0  0  0  0
   59.5951  137.0380   94.3578 H   0  0  0  0  0  0  0  0  0  0  0  0
   58.9685  135.8919   93.1909 H   0  0  0  0  0  0  0  0  0  0  0  0
   61.0655  137.4107   92.3886 H   0  0  0  0  0  0  0  0  0  0  0  0
   53.4827  138.2871   98.5221 H   0  0  0  0  0  0  0  0  0  0  0  0
   53.5586  139.7218   97.4439 H   0  0  0  0  0  0  0  0  0  0  0  0
   52.0992  138.6745   97.4439 H   0  0  0  0  0  0  0  0  0  0  0  0
  1  2  1  0
  2  3  1  0
  3  4  1  0
  4  5  1  0
  5  6  1  0
  6  7  1  0
  6  8  1  0
  8  9  2  0
  8 10  1  0
 10 11  1  0
 11 12  1  0
 11 13  1  0
 11 14  1  0
 10 15  1  0
 15 16  1  0
 16 17  2  0
 16 18  1  0
 18 19  1  0
 18 20  1  0
 18 21  1  0
  5 22  1  0
 22 23  2  0
 22 24  1  0
 24 25  1  0
 25 26  1  0
 26 27  1  0
 27 28  1  0
 28 29  1  0
 29 30  1  0
 30 31  1  0
 31 32  2  0
 25 33  1  0
 33 34  3  0
  2 35  1  0
  4  2  1  0
  7  3  1  0
 31 27  1  0
  1 36  1  0
  1 37  1  0
  1 38  1  0
  3 39  1  6
  4 40  1  6
  5 41  1  1
  7 42  1  0
  7 43  1  0
 10 44  1  6
 12 45  1  0
 12 46  1  0
 12 47  1  0
 13 48  1  0
 13 49  1  0
 13 50  1  0
 14 51  1  0
 14 52  1  0
 14 53  1  0
 15 54  1  0
 24 55  1  0
 25 56  1  6
 26 57  1  0
 26 58  1  0
 27 59  1  6
 28 60  1  0
 28 61  1  0
 29 62  1  0
 29 63  1  0
 30 64  1  0
 35 65  1  0
 35 66  1  0
 35 67  1  0
M  END
