
     RDKit          3D

 62 65  0  0  0  0  0  0  0  0999 V2000
   50.4990  139.9850   90.6490 C   0  0  0  0  0  0  0  0  0  0  0  0
   49.9030  139.5030   91.9990 C   0  0  0  0  0  0  0  0  0  0  0  0
   48.7750  140.4960   92.3460 C   0  0  0  0  0  0  0  0  0  0  0  0
   49.3050  138.1060   91.7140 C   0  0  0  0  0  0  0  0  0  0  0  0
   50.9410  139.4350   93.1510 C   0  0  0  0  0  0  0  0  0  0  0  0
   50.6180  139.9260   94.4380 C   0  0  0  0  0  0  0  0  0  0  0  0
   51.5270  139.9490   95.5120 C   0  0  0  0  0  0  0  0  0  0  0  0
   52.8200  139.4790   95.2700 C   0  0  0  0  0  0  0  0  0  0  0  0
   53.2090  138.9670   94.0180 C   0  0  0  0  0  0  0  0  0  0  0  0
   52.2430  138.9060   92.9830 C   0  0  0  0  0  0  0  0  0  0  0  0
   52.5770  138.3810   91.7550 O   0  0  0  0  0  0  0  0  0  0  0  0
   52.4840  136.9530   91.7250 C   0  0  0  0  0  0  0  0  0  0  0  0
   54.6150  138.5560   93.8350 C   0  0  0  0  0  0  0  0  0  0  0  0
   55.3140  138.8670   92.6560 C   0  0  0  0  0  0  0  0  0  0  0  0
   56.6530  138.4830   92.4700 C   0  0  0  0  0  0  0  0  0  0  0  0
   57.3150  137.7620   93.4890 C   0  0  0  0  0  0  0  0  0  0  0  0
   56.6190  137.4440   94.6640 C   0  0  0  0  0  0  0  0  0  0  0  0
   55.2870  137.8340   94.8310 C   0  0  0  0  0  0  0  0  0  0  0  0
   58.6540  137.3820   93.3070 C   0  0  0  0  0  0  0  0  0  0  0  0
   59.3240  137.6990   92.1260 C   0  0  0  0  0  0  0  0  0  0  0  0
   58.6800  138.4190   91.1230 C   0  0  0  0  0  0  0  0  0  0  0  0
   57.3490  138.8050   91.2930 C   0  0  0  0  0  0  0  0  0  0  0  0
   60.6970  137.3430   91.9760 N   0  0  0  0  0  0  0  0  0  0  0  0
   61.3940  136.4290   93.2220 S   0  0  0  0  0  0  0  0  0  0  0  0
   60.6960  135.1740   93.3800 O   0  0  0  0  0  0  0  0  0  0  0  0
   61.5460  137.3500   94.3290 O   0  0  0  0  0  0  0  0  0  0  0  0
   63.0150  136.1170   92.5560 C   0  0  0  0  0  0  0  0  0  0  0  0
   51.1230  140.4410   96.8150 N   0  0  0  0  0  0  0  0  0  0  0  0
   49.8480  140.1780   97.3100 C   0  0  0  0  0  0  0  0  0  0  0  0
   49.4070  140.6290   98.4850 C   0  0  0  0  0  0  0  0  0  0  0  0
   50.3010  141.4400   99.3150 C   0  0  0  0  0  0  0  0  0  0  0  0
   49.9180  141.9370  100.3650 O   0  0  0  0  0  0  0  0  0  0  0  0
   51.5650  141.5910   98.8300 N   0  0  0  0  0  0  0  0  0  0  0  0
   52.0220  141.2070   97.5910 C   0  0  0  0  0  0  0  0  0  0  0  0
   53.1400  141.5920   97.2550 O   0  0  0  0  0  0  0  0  0  0  0  0
   51.3410  140.6660   90.8422 H   0  0  0  0  0  0  0  0  0  0  0  0
   50.8539  139.1169   90.0741 H   0  0  0  0  0  0  0  0  0  0  0  0
   49.7244  140.5136   90.0741 H   0  0  0  0  0  0  0  0  0  0  0  0
   48.6820  140.5779   93.4390 H   0  0  0  0  0  0  0  0  0  0  0  0
   49.0127  141.4833   91.9232 H   0  0  0  0  0  0  0  0  0  0  0  0
   47.8258  140.1350   91.9232 H   0  0  0  0  0  0  0  0  0  0  0  0
   49.0880  137.5990   92.6657 H   0  0  0  0  0  0  0  0  0  0  0  0
   48.3751  138.2160   91.1368 H   0  0  0  0  0  0  0  0  0  0  0  0
   50.0265  137.5091   91.1368 H   0  0  0  0  0  0  0  0  0  0  0  0
   49.6015  140.3105   94.6083 H   0  0  0  0  0  0  0  0  0  0  0  0
   53.5584  139.5101   96.0847 H   0  0  0  0  0  0  0  0  0  0  0  0
   52.4588  136.5655   92.7542 H   0  0  0  0  0  0  0  0  0  0  0  0
   51.5646  136.6564   91.1989 H   0  0  0  0  0  0  0  0  0  0  0  0
   53.3571  136.5397   91.1989 H   0  0  0  0  0  0  0  0  0  0  0  0
   54.8003  139.4248   91.8591 H   0  0  0  0  0  0  0  0  0  0  0  0
   57.1261  136.8821   95.4622 H   0  0  0  0  0  0  0  0  0  0  0  0
   54.7579  137.5702   95.7586 H   0  0  0  0  0  0  0  0  0  0  0  0
   59.1782  136.8305   94.1014 H   0  0  0  0  0  0  0  0  0  0  0  0
   59.2178  138.6826   90.2004 H   0  0  0  0  0  0  0  0  0  0  0  0
   56.8398  139.3674   90.4965 H   0  0  0  0  0  0  0  0  0  0  0  0
   61.2401  137.6282   91.1486 H   0  0  0  0  0  0  0  0  0  0  0  0
   63.7299  135.9794   93.3806 H   0  0  0  0  0  0  0  0  0  0  0  0
   62.9886  135.2074   91.9379 H   0  0  0  0  0  0  0  0  0  0  0  0
   63.3281  136.9714   91.9379 H   0  0  0  0  0  0  0  0  0  0  0  0
   49.1685  139.5656   96.6991 H   0  0  0  0  0  0  0  0  0  0  0  0
   48.3875  140.3956   98.8257 H   0  0  0  0  0  0  0  0  0  0  0  0
   52.2493  142.0391   99.4560 H   0  0  0  0  0  0  0  0  0  0  0  0
  1  2  1  0
  2  3  1  0
  2  4  1  0
  2  5  1  0
  5  6  2  0
  6  7  1  0
  7  8  2  0
  8  9  1  0
  9 10  2  0
 10 11  1  0
 11 12  1  0
  9 13  1  0
 13 14  2  0
 14 15  1  0
 15 16  2  0
 16 17  1  0
 17 18  2  0
 16 19  1  0
 19 20  2  0
 20 21  1  0
 21 22  2  0
 20 23  1  0
 23 24  1  0
 24 25  2  0
 24 26  2  0
 24 27  1  0
  7 28  1  0
 28 29  1  0
 29 30  2  0
 30 31  1  0
 31 32  2  0
 31 33  1  0
 33 34  1  0
 34 35  2  0
 10  5  1  0
 18 13  1  0
 22 15  1  0
 34 28  1  0
  1 36  1  0
  1 37  1  0
  1 38  1  0
  3 39  1  0
  3 40  1  0
  3 41  1  0
  4 42  1  0
  4 43  1  0
  4 44  1  0
  6 45  1  0
  8 46  1  0
 12 47  1  0
 12 48  1  0
 12 49  1  0
 14 50  1  0
 17 51  1  0
 18 52  1  0
 19 53  1  0
 21 54  1  0
 22 55  1  0
 23 56  1  0
 27 57  1  0
 27 58  1  0
 27 59  1  0
 29 60  1  0
 30 61  1  0
 33 62  1  0
M  END
