
     RDKit          3D

 85 88  0  0  0  0  0  0  0  0999 V2000
    9.2700   28.8440   24.9140 C   0  0  0  0  0  0  0  0  0  0  0  0
    8.6560   28.2860   23.6600 C   0  0  0  0  0  0  0  0  0  0  0  0
    7.6620   28.9940   22.9500 C   0  0  0  0  0  0  0  0  0  0  0  0
    7.0260   28.4310   21.8330 C   0  0  0  0  0  0  0  0  0  0  0  0
    7.4030   27.1720   21.3770 C   0  0  0  0  0  0  0  0  0  0  0  0
    8.4200   26.4810   22.0310 C   0  0  0  0  0  0  0  0  0  0  0  0
    9.0410   27.0370   23.1500 C   0  0  0  0  0  0  0  0  0  0  0  0
   10.0380   26.2810   23.7030 O   0  0  0  0  0  0  0  0  0  0  0  0
    7.2330   30.3640   23.3240 C   0  0  0  0  0  0  0  0  0  0  0  0
    6.4650   30.5430   24.2630 O   0  0  0  0  0  0  0  0  0  0  0  0
    7.7040   31.3660   22.5070 N   0  0  0  0  0  0  0  0  0  0  0  0
    7.2320   32.7560   22.6450 C   0  0  1  0  0  0  0  0  0  0  0  0
    8.1730   33.5390   23.5860 C   0  0  0  0  0  0  0  0  0  0  0  0
    9.8690   32.8270   23.6920 S   0  0  0  0  0  0  0  0  0  0  0  0
   10.0470   32.7410   25.4610 C   0  0  0  0  0  0  0  0  0  0  0  0
   11.0630   33.4590   26.0990 C   0  0  0  0  0  0  0  0  0  0  0  0
   11.2120   33.3850   27.4860 C   0  0  0  0  0  0  0  0  0  0  0  0
   10.3490   32.5920   28.2390 C   0  0  0  0  0  0  0  0  0  0  0  0
    9.3390   31.8670   27.6060 C   0  0  0  0  0  0  0  0  0  0  0  0
    9.1930   31.9360   26.2200 C   0  0  0  0  0  0  0  0  0  0  0  0
    7.1040   33.3940   21.2330 C   0  0  1  0  0  0  0  0  0  0  0  0
    5.7420   34.0660   20.9220 C   0  0  0  0  0  0  0  0  0  0  0  0
    4.7410   33.1670   20.3260 N   0  0  0  0  0  0  0  0  0  0  0  0
    3.7150   32.7260   21.2810 C   0  0  0  0  0  0  0  0  0  0  0  0
    4.0040   31.3530   21.9070 C   0  0  1  0  0  0  0  0  0  0  0  0
    2.9430   31.0120   22.9680 C   0  0  0  0  0  0  0  0  0  0  0  0
    2.9920   29.5360   23.3380 C   0  0  0  0  0  0  0  0  0  0  0  0
    2.6920   28.6350   22.1400 C   0  0  0  0  0  0  0  0  0  0  0  0
    2.9370   29.3080   20.7890 C   0  0  0  0  0  0  0  0  0  0  0  0
    4.1430   30.2530   20.8260 C   0  0  1  0  0  0  0  0  0  0  0  0
    4.4100   30.8500   19.4360 C   0  0  0  0  0  0  0  0  0  0  0  0
    5.3450   32.0620   19.5410 C   0  0  1  0  0  0  0  0  0  0  0  0
    5.7020   32.5650   18.1200 C   0  0  0  0  0  0  0  0  0  0  0  0
    6.8380   32.9110   17.7990 O   0  0  0  0  0  0  0  0  0  0  0  0
    4.6310   32.5700   17.2450 N   0  0  0  0  0  0  0  0  0  0  0  0
    4.7110   32.9360   15.8220 C   0  0  0  0  0  0  0  0  0  0  0  0
    5.0080   34.4340   15.6500 C   0  0  0  0  0  0  0  0  0  0  0  0
    3.3430   32.6400   15.1790 C   0  0  0  0  0  0  0  0  0  0  0  0
    5.7800   32.0960   15.1030 C   0  0  0  0  0  0  0  0  0  0  0  0
    8.1940   34.2870   20.9700 O   0  0  0  0  0  0  0  0  0  0  0  0
    8.7796   28.3984   25.7920 H   0  0  0  0  0  0  0  0  0  0  0  0
   10.3438   28.6063   24.9337 H   0  0  0  0  0  0  0  0  0  0  0  0
    9.1357   29.9356   24.9337 H   0  0  0  0  0  0  0  0  0  0  0  0
    6.2284   28.9859   21.3174 H   0  0  0  0  0  0  0  0  0  0  0  0
    6.9013   26.7253   20.5059 H   0  0  0  0  0  0  0  0  0  0  0  0
    8.7350   25.4930   21.6640 H   0  0  0  0  0  0  0  0  0  0  0  0
   10.5248   26.6101   24.4997 H   0  0  0  0  0  0  0  0  0  0  0  0
    8.4014   31.1402   21.7834 H   0  0  0  0  0  0  0  0  0  0  0  0
    6.2342   32.7858   23.1071 H   0  0  0  0  0  0  0  0  0  0  0  0
    8.2520   34.5725   23.2177 H   0  0  0  0  0  0  0  0  0  0  0  0
    7.7374   33.4867   24.5947 H   0  0  0  0  0  0  0  0  0  0  0  0
   11.7473   34.0843   25.5068 H   0  0  0  0  0  0  0  0  0  0  0  0
   12.0114   33.9533   27.9840 H   0  0  0  0  0  0  0  0  0  0  0  0
   10.4638   32.5375   29.3316 H   0  0  0  0  0  0  0  0  0  0  0  0
    8.6573   31.2405   28.1999 H   0  0  0  0  0  0  0  0  0  0  0  0
    8.4026   31.3545   25.7228 H   0  0  0  0  0  0  0  0  0  0  0  0
    7.1513   32.5405   20.5407 H   0  0  0  0  0  0  0  0  0  0  0  0
    5.3315   34.4623   21.8625 H   0  0  0  0  0  0  0  0  0  0  0  0
    5.9423   34.8498   20.1767 H   0  0  0  0  0  0  0  0  0  0  0  0
    3.6501   33.4695   22.0891 H   0  0  0  0  0  0  0  0  0  0  0  0
    2.7731   32.6322   20.7207 H   0  0  0  0  0  0  0  0  0  0  0  0
    4.9758   31.4003   22.4201 H   0  0  0  0  0  0  0  0  0  0  0  0
    3.1296   31.6146   23.8692 H   0  0  0  0  0  0  0  0  0  0  0  0
    1.9492   31.2351   22.5524 H   0  0  0  0  0  0  0  0  0  0  0  0
    3.9964   29.2984   23.7184 H   0  0  0  0  0  0  0  0  0  0  0  0
    2.2231   29.3517   24.1027 H   0  0  0  0  0  0  0  0  0  0  0  0
    3.3340   27.7442   22.2059 H   0  0  0  0  0  0  0  0  0  0  0  0
    1.6218   28.3849   22.1855 H   0  0  0  0  0  0  0  0  0  0  0  0
    3.1191   28.5300   20.0330 H   0  0  0  0  0  0  0  0  0  0  0  0
    2.0466   29.9046   20.5413 H   0  0  0  0  0  0  0  0  0  0  0  0
    5.0184   29.6522   21.1136 H   0  0  0  0  0  0  0  0  0  0  0  0
    4.8783   30.0860   18.7980 H   0  0  0  0  0  0  0  0  0  0  0  0
    3.4542   31.1754   18.9995 H   0  0  0  0  0  0  0  0  0  0  0  0
    6.2541   31.7388   20.0693 H   0  0  0  0  0  0  0  0  0  0  0  0
    3.7098   32.2976   17.6166 H   0  0  0  0  0  0  0  0  0  0  0  0
    5.1014   34.9053   16.6395 H   0  0  0  0  0  0  0  0  0  0  0  0
    5.9486   34.5598   15.0937 H   0  0  0  0  0  0  0  0  0  0  0  0
    4.1866   34.9092   15.0937 H   0  0  0  0  0  0  0  0  0  0  0  0
    2.5942   32.4780   15.9683 H   0  0  0  0  0  0  0  0  0  0  0  0
    3.0390   33.4931   14.5547 H   0  0  0  0  0  0  0  0  0  0  0  0
    3.4189   31.7375   14.5547 H   0  0  0  0  0  0  0  0  0  0  0  0
    6.4161   31.5962   15.8484 H   0  0  0  0  0  0  0  0  0  0  0  0
    5.2893   31.3393   14.4732 H   0  0  0  0  0  0  0  0  0  0  0  0
    6.3992   32.7517   14.4732 H   0  0  0  0  0  0  0  0  0  0  0  0
    8.5774   34.6011   21.8270 H   0  0  0  0  0  0  0  0  0  0  0  0
  1  2  1  0
  2  3  2  0
  3  4  1  0
  4  5  2  0
  5  6  1  0
  6  7  2  0
  7  8  1  0
  3  9  1  0
  9 10  2  0
  9 11  1  0
 11 12  1  0
 12 13  1  0
 13 14  1  0
 14 15  1  0
 15 16  2  0
 16 17  1  0
 17 18  2  0
 18 19  1  0
 19 20  2  0
 12 21  1  0
 21 22  1  0
 22 23  1  0
 23 24  1  0
 24 25  1  0
 25 26  1  0
 26 27  1  0
 27 28  1  0
 28 29  1  0
 29 30  1  0
 30 31  1  0
 31 32  1  0
 32 33  1  0
 33 34  2  0
 33 35  1  0
 35 36  1  0
 36 37  1  0
 36 38  1  0
 36 39  1  0
 21 40  1  0
  7  2  1  0
 20 15  1  0
 32 23  1  0
 30 25  1  0
  1 41  1  0
  1 42  1  0
  1 43  1  0
  4 44  1  0
  5 45  1  0
  6 46  1  0
  8 47  1  0
 11 48  1  0
 12 49  1  1
 13 50  1  0
 13 51  1  0
 16 52  1  0
 17 53  1  0
 18 54  1  0
 19 55  1  0
 20 56  1  0
 21 57  1  6
 22 58  1  0
 22 59  1  0
 24 60  1  0
 24 61  1  0
 25 62  1  1
 26 63  1  0
 26 64  1  0
 27 65  1  0
 27 66  1  0
 28 67  1  0
 28 68  1  0
 29 69  1  0
 29 70  1  0
 30 71  1  1
 31 72  1  0
 31 73  1  0
 32 74  1  1
 35 75  1  0
 37 76  1  0
 37 77  1  0
 37 78  1  0
 38 79  1  0
 38 80  1  0
 38 81  1  0
 39 82  1  0
 39 83  1  0
 39 84  1  0
 40 85  1  0
M  END
