
     RDKit          3D

 31 32  0  0  0  0  0  0  0  0999 V2000
   62.4520  136.5440   92.5070 C   0  0  0  0  0  0  0  0  0  0  0  0
   61.0410  137.0320   92.4960 C   0  0  0  0  0  0  0  0  0  0  0  0
   60.5070  137.7790   91.5220 C   0  0  0  0  0  0  0  0  0  0  0  0
   59.1950  138.2070   91.5510 N   0  0  0  0  0  0  0  0  0  0  0  0
   58.3580  137.9120   92.6160 C   0  0  0  0  0  0  0  0  0  0  0  0
   57.1970  138.3080   92.6960 O   0  0  0  0  0  0  0  0  0  0  0  0
   58.8990  137.1360   93.6040 N   0  0  0  0  0  0  0  0  0  0  0  0
   60.1790  136.6660   93.6440 C   0  0  0  0  0  0  0  0  0  0  0  0
   60.5930  135.9850   94.5760 O   0  0  0  0  0  0  0  0  0  0  0  0
   58.6380  139.0660   90.5140 C   0  0  1  0  0  0  0  0  0  0  0  0
   59.0410  140.5430   90.6250 C   0  0  2  0  0  0  0  0  0  0  0  0
   59.0970  140.9640   89.1710 C   0  0  1  0  0  0  0  0  0  0  0  0
   59.6840  139.7100   88.5330 C   0  0  1  0  0  0  0  0  0  0  0  0
   59.0020  138.6130   89.1890 O   0  0  0  0  0  0  0  0  0  0  0  0
   59.4980  139.6250   87.0210 C   0  0  0  0  0  0  0  0  0  0  0  0
   58.1490  139.2560   86.7260 O   0  0  0  0  0  0  0  0  0  0  0  0
   57.7960  141.2820   88.6680 O   0  0  0  0  0  0  0  0  0  0  0  0
   60.2950  140.6600   91.1500 F   0  0  0  0  0  0  0  0  0  0  0  0
   62.7913  136.4267   93.5468 H   0  0  0  0  0  0  0  0  0  0  0  0
   62.5086  135.5741   91.9912 H   0  0  0  0  0  0  0  0  0  0  0  0
   63.0957  137.2717   91.9912 H   0  0  0  0  0  0  0  0  0  0  0  0
   61.1374  138.0624   90.6663 H   0  0  0  0  0  0  0  0  0  0  0  0
   58.2833  136.8833   94.3901 H   0  0  0  0  0  0  0  0  0  0  0  0
   57.5521  138.9938   90.6737 H   0  0  0  0  0  0  0  0  0  0  0  0
   58.3610  141.1299   91.2599 H   0  0  0  0  0  0  0  0  0  0  0  0
   59.6798  141.8759   88.9739 H   0  0  0  0  0  0  0  0  0  0  0  0
   60.7758  139.6992   88.6666 H   0  0  0  0  0  0  0  0  0  0  0  0
   59.7174  140.6036   86.5692 H   0  0  0  0  0  0  0  0  0  0  0  0
   60.1829  138.8688   86.6097 H   0  0  0  0  0  0  0  0  0  0  0  0
   57.6517  139.1200   87.5712 H   0  0  0  0  0  0  0  0  0  0  0  0
   57.1771  141.4333   89.4258 H   0  0  0  0  0  0  0  0  0  0  0  0
  1  2  1  0
  2  3  2  0
  3  4  1  0
  4  5  1  0
  5  6  2  0
  5  7  1  0
  7  8  1  0
  8  9  2  0
  4 10  1  0
 10 11  1  0
 11 12  1  0
 12 13  1  0
 13 14  1  0
 13 15  1  0
 15 16  1  0
 12 17  1  0
 11 18  1  0
  8  2  1  0
 14 10  1  0
  1 19  1  0
  1 20  1  0
  1 21  1  0
  3 22  1  0
  7 23  1  0
 10 24  1  1
 11 25  1  6
 12 26  1  6
 13 27  1  6
 15 28  1  0
 15 29  1  0
 16 30  1  0
 17 31  1  0
M  END
