
     RDKit          3D

 31 32  0  0  0  0  0  0  0  0999 V2000
   51.5730  138.5330   91.0080 C   0  0  0  0  0  0  0  0  0  0  0  0
   50.3910  139.3410   90.5320 C   0  0  1  0  0  0  0  0  0  0  0  0
   50.3500  140.5000   91.5270 C   0  0  2  0  0  0  0  0  0  0  0  0
   51.6870  140.6470   92.0760 O   0  0  0  0  0  0  0  0  0  0  0  0
   52.5180  139.6280   91.4890 C   0  0  1  0  0  0  0  0  0  0  0  0
   53.5080  139.1390   92.4440 N   0  0  0  0  0  0  0  0  0  0  0  0
   53.1640  138.7860   93.7360 C   0  0  0  0  0  0  0  0  0  0  0  0
   54.0560  138.3150   94.6160 C   0  0  0  0  0  0  0  0  0  0  0  0
   55.4500  138.1630   94.1820 C   0  0  0  0  0  0  0  0  0  0  0  0
   56.3270  137.7230   94.9150 O   0  0  0  0  0  0  0  0  0  0  0  0
   55.7160  138.5340   92.8920 N   0  0  0  0  0  0  0  0  0  0  0  0
   54.8080  138.9940   91.9750 C   0  0  0  0  0  0  0  0  0  0  0  0
   55.1560  139.2340   90.8210 O   0  0  0  0  0  0  0  0  0  0  0  0
   53.7700  137.9200   96.0140 C   0  0  0  0  0  0  0  0  0  0  0  0
   52.4300  137.9150   96.2630 F   0  0  0  0  0  0  0  0  0  0  0  0
   54.2020  136.6680   96.3020 F   0  0  0  0  0  0  0  0  0  0  0  0
   54.3150  138.7650   96.9220 F   0  0  0  0  0  0  0  0  0  0  0  0
   49.4120  140.2300   92.7060 C   0  0  0  0  0  0  0  0  0  0  0  0
   48.3300  141.1610   92.6910 O   0  0  0  0  0  0  0  0  0  0  0  0
   50.6650  139.8390   89.2230 O   0  0  0  0  0  0  0  0  0  0  0  0
   51.2924  137.8559   91.8283 H   0  0  0  0  0  0  0  0  0  0  0  0
   52.0044  137.8750   90.2393 H   0  0  0  0  0  0  0  0  0  0  0  0
   49.4499  138.7736   90.4830 H   0  0  0  0  0  0  0  0  0  0  0  0
   49.9918  141.3933   90.9944 H   0  0  0  0  0  0  0  0  0  0  0  0
   53.1050  140.0190   90.6449 H   0  0  0  0  0  0  0  0  0  0  0  0
   52.1165  138.8966   94.0530 H   0  0  0  0  0  0  0  0  0  0  0  0
   56.6948  138.4602   92.5798 H   0  0  0  0  0  0  0  0  0  0  0  0
   49.0141  139.2074   92.6284 H   0  0  0  0  0  0  0  0  0  0  0  0
   49.9719  140.3415   93.6463 H   0  0  0  0  0  0  0  0  0  0  0  0
   48.0724  141.3826   93.6209 H   0  0  0  0  0  0  0  0  0  0  0  0
   51.1411  140.7043   89.2921 H   0  0  0  0  0  0  0  0  0  0  0  0
  1  2  1  0
  2  3  1  0
  3  4  1  0
  4  5  1  0
  5  6  1  0
  6  7  1  0
  7  8  2  0
  8  9  1  0
  9 10  2  0
  9 11  1  0
 11 12  1  0
 12 13  2  0
  8 14  1  0
 14 15  1  0
 14 16  1  0
 14 17  1  0
  3 18  1  0
 18 19  1  0
  2 20  1  0
  5  1  1  0
 12  6  1  0
  1 21  1  0
  1 22  1  0
  2 23  1  6
  3 24  1  6
  5 25  1  6
  7 26  1  0
 11 27  1  0
 18 28  1  0
 18 29  1  0
 19 30  1  0
 20 31  1  0
M  END
