
     RDKit          3D

 53 54  0  0  0  0  0  0  0  0999 V2000
   11.6430   27.1610   25.5130 C   0  0  0  0  0  0  0  0  0  0  0  0
   11.4270   28.2250   26.5740 C   0  0  0  0  0  0  0  0  0  0  0  0
   10.7320   29.3470   26.0110 O   0  0  0  0  0  0  0  0  0  0  0  0
    9.5150   29.6100   26.5520 C   0  0  0  0  0  0  0  0  0  0  0  0
    9.0930   29.1960   27.6200 O   0  0  0  0  0  0  0  0  0  0  0  0
    8.7180   30.4240   25.6160 C   0  0  0  0  0  0  0  0  0  0  0  0
    8.9190   31.7490   25.4450 C   0  0  0  0  0  0  0  0  0  0  0  0
    8.1060   32.4560   24.5650 N   0  0  0  0  0  0  0  0  0  0  0  0
    6.9750   31.9340   23.9600 C   0  0  0  0  0  0  0  0  0  0  0  0
    6.7150   30.6110   24.0680 C   0  0  0  0  0  0  0  0  0  0  0  0
    7.6180   29.6750   24.8690 C   0  0  0  0  0  0  0  0  0  0  0  0
    8.2240   28.5920   23.9650 C   0  0  0  0  0  0  0  0  0  0  0  0
    7.8310   27.2460   24.1420 C   0  0  0  0  0  0  0  0  0  0  0  0
    8.3450   26.2290   23.3380 C   0  0  0  0  0  0  0  0  0  0  0  0
    9.2620   26.5310   22.3370 C   0  0  0  0  0  0  0  0  0  0  0  0
    9.6660   27.8510   22.1450 C   0  0  0  0  0  0  0  0  0  0  0  0
    9.1540   28.8760   22.9490 C   0  0  0  0  0  0  0  0  0  0  0  0
    9.7220   30.4740   22.6240 Cl  0  0  0  0  0  0  0  0  0  0  0  0
    5.5260   29.9720   23.4730 C   0  0  0  0  0  0  0  0  0  0  0  0
    5.4240   29.7030   22.2870 O   0  0  0  0  0  0  0  0  0  0  0  0
    4.5710   29.8030   24.4210 O   0  0  0  0  0  0  0  0  0  0  0  0
    3.2390   29.8860   23.9160 C   0  0  0  0  0  0  0  0  0  0  0  0
    6.0880   32.9290   23.2570 C   0  0  0  0  0  0  0  0  0  0  0  0
    9.9550   32.5590   26.2020 C   0  0  0  0  0  0  0  0  0  0  0  0
    9.5970   32.5770   27.5930 O   0  0  0  0  0  0  0  0  0  0  0  0
   10.5910   33.2360   28.3790 C   0  0  0  0  0  0  0  0  0  0  0  0
   11.1230   32.2550   29.4300 C   0  0  0  0  0  0  0  0  0  0  0  0
   11.3140   30.9020   28.9110 N   0  0  0  0  0  0  0  0  0  0  0  0
   11.8394   26.1936   25.9985 H   0  0  0  0  0  0  0  0  0  0  0  0
   10.7429   27.0805   24.8859 H   0  0  0  0  0  0  0  0  0  0  0  0
   12.5033   27.4379   24.8859 H   0  0  0  0  0  0  0  0  0  0  0  0
   10.8311   27.8031   27.3967 H   0  0  0  0  0  0  0  0  0  0  0  0
   12.4038   28.5593   26.9535 H   0  0  0  0  0  0  0  0  0  0  0  0
    8.3617   33.4302   24.3496 H   0  0  0  0  0  0  0  0  0  0  0  0
    6.9821   29.1920   25.6255 H   0  0  0  0  0  0  0  0  0  0  0  0
    7.1052   26.9956   24.9297 H   0  0  0  0  0  0  0  0  0  0  0  0
    8.0252   25.1884   23.4955 H   0  0  0  0  0  0  0  0  0  0  0  0
    9.6668   25.7313   21.6994 H   0  0  0  0  0  0  0  0  0  0  0  0
   10.3934   28.0893   21.3550 H   0  0  0  0  0  0  0  0  0  0  0  0
    2.5304   29.9302   24.7562 H   0  0  0  0  0  0  0  0  0  0  0  0
    3.1357   30.7923   23.3012 H   0  0  0  0  0  0  0  0  0  0  0  0
    3.0240   28.9995   23.3012 H   0  0  0  0  0  0  0  0  0  0  0  0
    5.5502   33.5322   24.0033 H   0  0  0  0  0  0  0  0  0  0  0  0
    6.7036   33.5882   22.6273 H   0  0  0  0  0  0  0  0  0  0  0  0
    5.3627   32.3929   22.6273 H   0  0  0  0  0  0  0  0  0  0  0  0
   10.9465   32.0983   26.0806 H   0  0  0  0  0  0  0  0  0  0  0  0
    9.9885   33.5861   25.8097 H   0  0  0  0  0  0  0  0  0  0  0  0
   11.4160   33.5657   27.7304 H   0  0  0  0  0  0  0  0  0  0  0  0
   10.1519   34.1134   28.8763 H   0  0  0  0  0  0  0  0  0  0  0  0
   12.0901   32.6279   29.7982 H   0  0  0  0  0  0  0  0  0  0  0  0
   10.3712   32.1946   30.2307 H   0  0  0  0  0  0  0  0  0  0  0  0
   11.4071   30.2428   29.6969 H   0  0  0  0  0  0  0  0  0  0  0  0
   10.5020   30.6373   28.3352 H   0  0  0  0  0  0  0  0  0  0  0  0
  1  2  1  0
  2  3  1  0
  3  4  1  0
  4  5  2  0
  4  6  1  0
  6  7  2  0
  7  8  1  0
  8  9  1  0
  9 10  2  0
 10 11  1  0
 11 12  1  0
 12 13  2  0
 13 14  1  0
 14 15  2  0
 15 16  1  0
 16 17  2  0
 17 18  1  0
 10 19  1  0
 19 20  2  0
 19 21  1  0
 21 22  1  0
  9 23  1  0
  7 24  1  0
 24 25  1  0
 25 26  1  0
 26 27  1  0
 27 28  1  0
 11  6  1  0
 17 12  1  0
  1 29  1  0
  1 30  1  0
  1 31  1  0
  2 32  1  0
  2 33  1  0
  8 34  1  0
 11 35  1  0
 13 36  1  0
 14 37  1  0
 15 38  1  0
 16 39  1  0
 22 40  1  0
 22 41  1  0
 22 42  1  0
 23 43  1  0
 23 44  1  0
 23 45  1  0
 24 46  1  0
 24 47  1  0
 26 48  1  0
 26 49  1  0
 27 50  1  0
 27 51  1  0
 28 52  1  0
 28 53  1  0
M  END
