
     RDKit          3D

 48 49  0  0  0  0  0  0  0  0999 V2000
    6.4010   31.0160   20.4430 C   0  0  0  0  0  0  0  0  0  0  0  0
    6.1820   31.7520   21.7610 C   0  0  0  0  0  0  0  0  0  0  0  0
    7.1280   31.3680   22.8260 N   0  0  0  0  0  0  0  0  0  0  0  0
    8.2380   32.3190   23.0070 C   0  0  0  0  0  0  0  0  0  0  0  0
    9.6300   31.8230   22.6300 C   0  0  0  0  0  0  0  0  0  0  0  0
    6.3890   31.0730   24.0660 C   0  0  0  0  0  0  0  0  0  0  0  0
    6.8580   29.8180   24.8220 C   0  0  0  0  0  0  0  0  0  0  0  0
    7.5160   28.7830   23.8980 C   0  0  0  0  0  0  0  0  0  0  0  0
    8.7830   28.1090   24.4690 C   0  0  0  0  0  0  0  0  0  0  0  0
    9.4200   27.1580   23.4530 C   0  0  0  0  0  0  0  0  0  0  0  0
    9.7490   29.1400   24.8710 N   0  0  0  0  0  0  0  0  0  0  0  0
   10.3140   29.2080   26.1580 C   0  0  0  0  0  0  0  0  0  0  0  0
   10.4090   30.4700   26.8170 C   0  0  0  0  0  0  0  0  0  0  0  0
    9.9690   31.6900   26.2470 C   0  0  0  0  0  0  0  0  0  0  0  0
   10.0720   32.8950   26.9410 C   0  0  0  0  0  0  0  0  0  0  0  0
   10.6240   32.8980   28.2120 C   0  0  0  0  0  0  0  0  0  0  0  0
   11.0780   31.7140   28.7850 C   0  0  0  0  0  0  0  0  0  0  0  0
   10.9880   30.5060   28.1100 C   0  0  0  0  0  0  0  0  0  0  0  0
   11.4680   29.4170   28.7230 N   0  0  0  0  0  0  0  0  0  0  0  0
   11.4120   28.2480   28.0590 C   0  0  0  0  0  0  0  0  0  0  0  0
   10.8650   28.0990   26.7980 C   0  0  0  0  0  0  0  0  0  0  0  0
   10.7570   34.3770   29.0820 Cl  0  0  0  0  0  0  0  0  0  0  0  0
    6.7092   29.9802   20.6483 H   0  0  0  0  0  0  0  0  0  0  0  0
    5.4650   31.0124   19.8651 H   0  0  0  0  0  0  0  0  0  0  0  0
    7.1867   31.5247   19.8651 H   0  0  0  0  0  0  0  0  0  0  0  0
    6.2881   32.8312   21.5765 H   0  0  0  0  0  0  0  0  0  0  0  0
    5.1765   31.4801   22.1146 H   0  0  0  0  0  0  0  0  0  0  0  0
    8.0217   33.2054   22.3925 H   0  0  0  0  0  0  0  0  0  0  0  0
    8.2817   32.5114   24.0892 H   0  0  0  0  0  0  0  0  0  0  0  0
   10.2062   31.6177   23.5443 H   0  0  0  0  0  0  0  0  0  0  0  0
    9.5425   30.9007   22.0369 H   0  0  0  0  0  0  0  0  0  0  0  0
   10.1454   32.5928   22.0369 H   0  0  0  0  0  0  0  0  0  0  0  0
    6.4951   31.9362   24.7396 H   0  0  0  0  0  0  0  0  0  0  0  0
    5.3493   30.8783   23.7642 H   0  0  0  0  0  0  0  0  0  0  0  0
    7.5872   30.1202   25.5881 H   0  0  0  0  0  0  0  0  0  0  0  0
    5.9701   29.3478   25.2698 H   0  0  0  0  0  0  0  0  0  0  0  0
    6.7770   27.9962   23.6863 H   0  0  0  0  0  0  0  0  0  0  0  0
    7.8382   29.3328   23.0014 H   0  0  0  0  0  0  0  0  0  0  0  0
    8.4905   27.5126   25.3458 H   0  0  0  0  0  0  0  0  0  0  0  0
    9.9557   26.3582   23.9852 H   0  0  0  0  0  0  0  0  0  0  0  0
    8.6348   26.7163   22.8218 H   0  0  0  0  0  0  0  0  0  0  0  0
   10.1273   27.7160   22.8218 H   0  0  0  0  0  0  0  0  0  0  0  0
   10.0265   29.8482   24.1765 H   0  0  0  0  0  0  0  0  0  0  0  0
    9.5369   31.6866   25.2354 H   0  0  0  0  0  0  0  0  0  0  0  0
    9.7193   33.8319   26.4851 H   0  0  0  0  0  0  0  0  0  0  0  0
   11.5170   31.7367   29.7934 H   0  0  0  0  0  0  0  0  0  0  0  0
   11.8272   27.3555   28.5499 H   0  0  0  0  0  0  0  0  0  0  0  0
   10.8646   27.1157   26.3050 H   0  0  0  0  0  0  0  0  0  0  0  0
  1  2  1  0
  2  3  1  0
  3  4  1  0
  4  5  1  0
  3  6  1  0
  6  7  1  0
  7  8  1  0
  8  9  1  0
  9 10  1  0
  9 11  1  0
 11 12  1  0
 12 13  2  0
 13 14  1  0
 14 15  2  0
 15 16  1  0
 16 17  2  0
 17 18  1  0
 18 19  2  0
 19 20  1  0
 20 21  2  0
 16 22  1  0
 21 12  1  0
 18 13  1  0
  1 23  1  0
  1 24  1  0
  1 25  1  0
  2 26  1  0
  2 27  1  0
  4 28  1  0
  4 29  1  0
  5 30  1  0
  5 31  1  0
  5 32  1  0
  6 33  1  0
  6 34  1  0
  7 35  1  0
  7 36  1  0
  8 37  1  0
  8 38  1  0
  9 39  1  0
 10 40  1  0
 10 41  1  0
 10 42  1  0
 11 43  1  0
 14 44  1  0
 15 45  1  0
 17 46  1  0
 20 47  1  0
 21 48  1  0
M  END
