
     RDKit          3D

 30 31  0  0  0  0  0  0  0  0999 V2000
   62.8180  136.7480   91.8200 C   0  0  0  0  0  0  0  0  0  0  0  0
   62.2760  136.2150   92.9360 N   0  0  0  0  0  0  0  0  0  0  0  0
   61.0000  136.5390   93.2500 C   0  0  0  0  0  0  0  0  0  0  0  0
   60.2930  137.3910   92.3860 C   0  0  0  0  0  0  0  0  0  0  0  0
   60.9800  137.8550   91.2760 C   0  0  0  0  0  0  0  0  0  0  0  0
   62.2450  137.5790   90.9220 N   0  0  0  0  0  0  0  0  0  0  0  0
   60.0820  138.6480   90.6170 N   0  0  0  0  0  0  0  0  0  0  0  0
   58.9110  138.6320   91.3250 C   0  0  0  0  0  0  0  0  0  0  0  0
   58.9990  137.8750   92.3990 N   0  0  0  0  0  0  0  0  0  0  0  0
   60.3370  139.3760   89.3960 C   0  0  0  0  0  0  0  0  0  0  0  0
   59.2340  139.1800   88.3610 C   0  0  0  0  0  0  0  0  0  0  0  0
   59.6750  138.3320   87.3010 O   0  0  0  0  0  0  0  0  0  0  0  0
   61.1030  138.3190   87.1600 C   0  0  0  0  0  0  0  0  0  0  0  0
   61.6440  136.6200   86.9880 P   0  0  0  0  0  0  0  0  0  0  0  0
   62.5380  136.2590   85.8470 O   0  0  0  0  0  0  0  0  0  0  0  0
   60.3320  135.6990   87.0360 O   0  0  0  0  0  0  0  0  0  0  0  0
   62.3220  136.2320   88.3910 O   0  0  0  0  0  0  0  0  0  0  0  0
   60.4470  135.9950   94.4020 N   0  0  0  0  0  0  0  0  0  0  0  0
   63.8622  136.4693   91.6153 H   0  0  0  0  0  0  0  0  0  0  0  0
   58.0059  139.1845   91.0325 H   0  0  0  0  0  0  0  0  0  0  0  0
   60.4128  140.4475   89.6329 H   0  0  0  0  0  0  0  0  0  0  0  0
   61.2732  138.9912   88.9654 H   0  0  0  0  0  0  0  0  0  0  0  0
   58.3601  138.7228   88.8482 H   0  0  0  0  0  0  0  0  0  0  0  0
   58.9694  140.1609   87.9394 H   0  0  0  0  0  0  0  0  0  0  0  0
   61.3926  138.8925   86.2671 H   0  0  0  0  0  0  0  0  0  0  0  0
   61.5724  138.7755   88.0439 H   0  0  0  0  0  0  0  0  0  0  0  0
   60.0849  135.5255   87.9788 H   0  0  0  0  0  0  0  0  0  0  0  0
   61.7535  136.5573   89.1334 H   0  0  0  0  0  0  0  0  0  0  0  0
   59.4780  136.2239   94.6658 H   0  0  0  0  0  0  0  0  0  0  0  0
   61.0058  135.3626   94.9925 H   0  0  0  0  0  0  0  0  0  0  0  0
  1  2  2  0
  2  3  1  0
  3  4  2  0
  4  5  1  0
  5  6  2  0
  5  7  1  0
  7  8  1  0
  8  9  2  0
  7 10  1  0
 10 11  1  0
 11 12  1  0
 12 13  1  0
 13 14  1  0
 14 15  2  0
 14 16  1  0
 14 17  1  0
  3 18  1  0
  6  1  1  0
  9  4  1  0
  1 19  1  0
  8 20  1  0
 10 21  1  0
 10 22  1  0
 11 23  1  0
 11 24  1  0
 13 25  1  0
 13 26  1  0
 16 27  1  0
 17 28  1  0
 18 29  1  0
 18 30  1  0
M  END
