
     RDKit          3D

 45 48  0  0  0  0  0  0  0  0999 V2000
   57.2620  137.5210   94.5290 C   0  0  0  0  0  0  0  0  0  0  0  0
   55.7670  137.5390   94.8580 C   0  0  0  0  0  0  0  0  0  0  0  0
   55.0560  138.7320   94.1880 C   0  0  0  0  0  0  0  0  0  0  0  0
   55.3120  138.7650   92.6700 C   0  0  0  0  0  0  0  0  0  0  0  0
   56.8080  138.7330   92.3510 C   0  0  0  0  0  0  0  0  0  0  0  0
   57.5010  137.5290   93.0100 C   0  0  0  0  0  0  0  0  0  0  0  0
   58.9820  137.4780   92.6710 C   0  0  0  0  0  0  0  0  0  0  0  0
   59.9090  136.8310   93.5030 C   0  0  0  0  0  0  0  0  0  0  0  0
   61.2660  136.8000   93.1700 C   0  0  0  0  0  0  0  0  0  0  0  0
   61.7070  137.4140   92.0010 C   0  0  0  0  0  0  0  0  0  0  0  0
   60.8030  138.0600   91.1630 C   0  0  0  0  0  0  0  0  0  0  0  0
   59.4460  138.0920   91.4970 C   0  0  0  0  0  0  0  0  0  0  0  0
   63.3770  137.3740   91.5920 Cl  0  0  0  0  0  0  0  0  0  0  0  0
   53.5720  138.8180   94.5280 C   0  0  0  0  0  0  0  0  0  0  0  0
   52.6370  137.9060   94.1830 C   0  0  0  0  0  0  0  0  0  0  0  0
   51.1990  138.0590   94.5000 C   0  0  0  0  0  0  0  0  0  0  0  0
   50.2750  137.0380   94.2140 C   0  0  0  0  0  0  0  0  0  0  0  0
   48.9110  137.1950   94.4880 C   0  0  0  0  0  0  0  0  0  0  0  0
   48.4430  138.3780   95.0490 C   0  0  0  0  0  0  0  0  0  0  0  0
   49.3390  139.4030   95.3400 C   0  0  0  0  0  0  0  0  0  0  0  0
   50.7040  139.2340   95.0710 C   0  0  0  0  0  0  0  0  0  0  0  0
   51.6410  140.3160   95.3880 C   0  0  0  0  0  0  0  0  0  0  0  0
   51.2500  141.4310   95.7060 O   0  0  0  0  0  0  0  0  0  0  0  0
   53.1240  140.0090   95.3180 C   0  0  0  0  0  0  0  0  0  0  0  0
   53.9130  140.7310   95.9120 O   0  0  0  0  0  0  0  0  0  0  0  0
   52.9230  136.7360   93.5060 O   0  0  0  0  0  0  0  0  0  0  0  0
   57.7367  138.4095   94.9709 H   0  0  0  0  0  0  0  0  0  0  0  0
   57.6972  136.5998   94.9436 H   0  0  0  0  0  0  0  0  0  0  0  0
   55.3109  136.6041   94.5003 H   0  0  0  0  0  0  0  0  0  0  0  0
   55.6543  137.6374   95.9478 H   0  0  0  0  0  0  0  0  0  0  0  0
   55.5070  139.6394   94.6162 H   0  0  0  0  0  0  0  0  0  0  0  0
   54.8295  137.8914   92.2074 H   0  0  0  0  0  0  0  0  0  0  0  0
   54.8947  139.7012   92.2707 H   0  0  0  0  0  0  0  0  0  0  0  0
   56.9393  138.6679   91.2608 H   0  0  0  0  0  0  0  0  0  0  0  0
   57.2643  139.6522   92.7472 H   0  0  0  0  0  0  0  0  0  0  0  0
   57.0490  136.6151   92.5971 H   0  0  0  0  0  0  0  0  0  0  0  0
   59.5639  136.3433   94.4266 H   0  0  0  0  0  0  0  0  0  0  0  0
   61.9841  136.2915   93.8302 H   0  0  0  0  0  0  0  0  0  0  0  0
   61.1554  138.5441   90.2403 H   0  0  0  0  0  0  0  0  0  0  0  0
   58.7341  138.6038   90.8327 H   0  0  0  0  0  0  0  0  0  0  0  0
   50.6307  136.0982   93.7665 H   0  0  0  0  0  0  0  0  0  0  0  0
   48.2080  136.3806   94.2589 H   0  0  0  0  0  0  0  0  0  0  0  0
   47.3710  138.5033   95.2617 H   0  0  0  0  0  0  0  0  0  0  0  0
   48.9763  140.3436   95.7802 H   0  0  0  0  0  0  0  0  0  0  0  0
   52.1950  136.1044   93.2798 H   0  0  0  0  0  0  0  0  0  0  0  0
  1  2  1  0
  2  3  1  0
  3  4  1  0
  4  5  1  0
  5  6  1  0
  6  7  1  0
  7  8  2  0
  8  9  1  0
  9 10  2  0
 10 11  1  0
 11 12  2  0
 10 13  1  0
  3 14  1  0
 14 15  2  0
 15 16  1  0
 16 17  2  0
 17 18  1  0
 18 19  2  0
 19 20  1  0
 20 21  2  0
 21 22  1  0
 22 23  2  0
 22 24  1  0
 24 25  2  0
 15 26  1  0
  6  1  1  0
 12  7  1  0
 24 14  1  0
 21 16  1  0
  1 27  1  0
  1 28  1  0
  2 29  1  0
  2 30  1  0
  3 31  1  0
  4 32  1  0
  4 33  1  0
  5 34  1  0
  5 35  1  0
  6 36  1  0
  8 37  1  0
  9 38  1  0
 11 39  1  0
 12 40  1  0
 17 41  1  0
 18 42  1  0
 19 43  1  0
 20 44  1  0
 26 45  1  0
M  END
