
     RDKit          3D

 54 57  0  0  0  0  0  0  0  0999 V2000
   61.7490  136.2780   85.4440 C   0  0  0  0  0  0  0  0  0  0  0  0
   62.0450  137.2480   86.4950 N   0  0  0  0  0  0  0  0  0  0  0  0
   61.0580  138.3340   86.5420 C   0  0  0  0  0  0  0  0  0  0  0  0
   60.0550  138.2060   87.6870 C   0  0  0  0  0  0  0  0  0  0  0  0
   60.7540  138.1630   89.0550 C   0  0  0  0  0  0  0  0  0  0  0  0
   62.1610  137.5440   88.9540 C   0  0  0  0  0  0  0  0  0  0  0  0
   62.2500  136.5690   87.7840 C   0  0  0  0  0  0  0  0  0  0  0  0
   60.8130  139.5540   89.7060 C   0  0  0  0  0  0  0  0  0  0  0  0
   60.4360  139.4310   91.0770 O   0  0  0  0  0  0  0  0  0  0  0  0
   59.1000  139.3410   91.3730 C   0  0  0  0  0  0  0  0  0  0  0  0
   58.7140  138.2360   92.1480 C   0  0  0  0  0  0  0  0  0  0  0  0
   57.3690  138.0840   92.4890 C   0  0  0  0  0  0  0  0  0  0  0  0
   56.3940  139.0250   92.0650 C   0  0  0  0  0  0  0  0  0  0  0  0
   56.7880  140.1120   91.2750 C   0  0  0  0  0  0  0  0  0  0  0  0
   58.1300  140.2540   90.9460 C   0  0  0  0  0  0  0  0  0  0  0  0
   55.9250  141.0230   90.8190 N   0  0  0  0  0  0  0  0  0  0  0  0
   54.6400  140.8530   91.1470 C   0  0  0  0  0  0  0  0  0  0  0  0
   54.1410  139.8660   91.8940 N   0  0  0  0  0  0  0  0  0  0  0  0
   55.0170  138.9600   92.3650 C   0  0  0  0  0  0  0  0  0  0  0  0
   54.5450  137.9100   93.1960 N   0  0  0  0  0  0  0  0  0  0  0  0
   53.2060  137.5290   93.4500 C   0  0  0  0  0  0  0  0  0  0  0  0
   52.4090  137.0850   92.3820 C   0  0  0  0  0  0  0  0  0  0  0  0
   51.0670  136.7520   92.5460 C   0  0  0  0  0  0  0  0  0  0  0  0
   50.4930  136.8830   93.8040 C   0  0  0  0  0  0  0  0  0  0  0  0
   51.2460  137.3500   94.8810 C   0  0  0  0  0  0  0  0  0  0  0  0
   52.5940  137.6810   94.6990 C   0  0  0  0  0  0  0  0  0  0  0  0
   48.6720  136.4400   94.0550 Br  0  0  0  0  0  0  0  0  0  0  0  0
   52.9600  136.9680   91.1630 F   0  0  0  0  0  0  0  0  0  0  0  0
   59.7150  137.3770   92.5200 O   0  0  0  0  0  0  0  0  0  0  0  0
   59.6020  136.7300   93.7810 C   0  0  0  0  0  0  0  0  0  0  0  0
   61.4569  135.3207   85.9003 H   0  0  0  0  0  0  0  0  0  0  0  0
   60.9246  136.6535   84.8201 H   0  0  0  0  0  0  0  0  0  0  0  0
   62.6426  136.1292   84.8201 H   0  0  0  0  0  0  0  0  0  0  0  0
   61.5957  139.2867   86.6568 H   0  0  0  0  0  0  0  0  0  0  0  0
   60.4831  138.2854   85.6054 H   0  0  0  0  0  0  0  0  0  0  0  0
   59.3739  139.0694   87.6620 H   0  0  0  0  0  0  0  0  0  0  0  0
   59.5032  137.2636   87.5549 H   0  0  0  0  0  0  0  0  0  0  0  0
   60.1475  137.5147   89.7045 H   0  0  0  0  0  0  0  0  0  0  0  0
   62.8975  138.3480   88.8083 H   0  0  0  0  0  0  0  0  0  0  0  0
   62.3678  136.9936   89.8837 H   0  0  0  0  0  0  0  0  0  0  0  0
   63.2448  136.0995   87.7857 H   0  0  0  0  0  0  0  0  0  0  0  0
   61.4587  135.8145   87.9046 H   0  0  0  0  0  0  0  0  0  0  0  0
   61.8360  139.9523   89.6372 H   0  0  0  0  0  0  0  0  0  0  0  0
   60.1278  140.2410   89.1878 H   0  0  0  0  0  0  0  0  0  0  0  0
   57.0593  137.2208   93.0964 H   0  0  0  0  0  0  0  0  0  0  0  0
   58.4397  141.1113   90.3303 H   0  0  0  0  0  0  0  0  0  0  0  0
   53.9261  141.5975   90.7648 H   0  0  0  0  0  0  0  0  0  0  0  0
   55.2689  137.3553   93.6746 H   0  0  0  0  0  0  0  0  0  0  0  0
   50.4718  136.3915   91.6941 H   0  0  0  0  0  0  0  0  0  0  0  0
   50.7813  137.4581   95.8722 H   0  0  0  0  0  0  0  0  0  0  0  0
   53.1788  138.0650   95.5478 H   0  0  0  0  0  0  0  0  0  0  0  0
   59.7311  137.4692   94.5853 H   0  0  0  0  0  0  0  0  0  0  0  0
   58.6090  136.2646   93.8667 H   0  0  0  0  0  0  0  0  0  0  0  0
   60.3785  135.9556   93.8667 H   0  0  0  0  0  0  0  0  0  0  0  0
  1  2  1  0
  2  3  1  0
  3  4  1  0
  4  5  1  0
  5  6  1  0
  6  7  1  0
  5  8  1  0
  8  9  1  0
  9 10  1  0
 10 11  2  0
 11 12  1  0
 12 13  2  0
 13 14  1  0
 14 15  2  0
 14 16  1  0
 16 17  2  0
 17 18  1  0
 18 19  2  0
 19 20  1  0
 20 21  1  0
 21 22  2  0
 22 23  1  0
 23 24  2  0
 24 25  1  0
 25 26  2  0
 24 27  1  0
 22 28  1  0
 11 29  1  0
 29 30  1  0
  7  2  1  0
 15 10  1  0
 19 13  1  0
 26 21  1  0
  1 31  1  0
  1 32  1  0
  1 33  1  0
  3 34  1  0
  3 35  1  0
  4 36  1  0
  4 37  1  0
  5 38  1  0
  6 39  1  0
  6 40  1  0
  7 41  1  0
  7 42  1  0
  8 43  1  0
  8 44  1  0
 12 45  1  0
 15 46  1  0
 17 47  1  0
 20 48  1  0
 23 49  1  0
 25 50  1  0
 26 51  1  0
 30 52  1  0
 30 53  1  0
 30 54  1  0
M  END
