
     RDKit          3D

 31 32  0  0  0  0  0  0  0  0999 V2000
    8.4130   26.2070   23.2550 C   0  0  0  0  0  0  0  0  0  0  0  0
    8.4200   27.5760   23.8510 C   0  0  0  0  0  0  0  0  0  0  0  0
    7.3460   28.3720   23.9280 C   0  0  0  0  0  0  0  0  0  0  0  0
    7.3970   29.6320   24.4900 N   0  0  0  0  0  0  0  0  0  0  0  0
    8.5800   30.1600   24.9840 C   0  0  0  0  0  0  0  0  0  0  0  0
    8.6720   31.2920   25.4560 O   0  0  0  0  0  0  0  0  0  0  0  0
    9.6730   29.3400   24.9190 N   0  0  0  0  0  0  0  0  0  0  0  0
    9.7030   28.0830   24.3900 C   0  0  0  0  0  0  0  0  0  0  0  0
   10.7310   27.4160   24.3570 O   0  0  0  0  0  0  0  0  0  0  0  0
    6.2370   30.5130   24.5200 C   0  0  1  0  0  0  0  0  0  0  0  0
    6.1800   31.5310   23.3710 C   0  0  2  0  0  0  0  0  0  0  0  0
    4.6900   31.6620   23.1390 C   0  0  1  0  0  0  0  0  0  0  0  0
    4.2400   30.2210   23.3540 C   0  0  1  0  0  0  0  0  0  0  0  0
    4.9960   29.7690   24.5040 O   0  0  0  0  0  0  0  0  0  0  0  0
    2.7430   30.0570   23.6040 C   0  0  0  0  0  0  0  0  0  0  0  0
    2.5380   29.2130   24.7370 O   0  0  0  0  0  0  0  0  0  0  0  0
    4.0930   32.5700   24.0700 O   0  0  0  0  0  0  0  0  0  0  0  0
    6.7420   31.0100   22.2420 F   0  0  0  0  0  0  0  0  0  0  0  0
    8.4092   25.4569   24.0595 H   0  0  0  0  0  0  0  0  0  0  0  0
    7.5142   26.0824   22.6332 H   0  0  0  0  0  0  0  0  0  0  0  0
    9.3105   26.0732   22.6332 H   0  0  0  0  0  0  0  0  0  0  0  0
    6.3876   28.0085   23.5287 H   0  0  0  0  0  0  0  0  0  0  0  0
   10.5551   29.7056   25.3053 H   0  0  0  0  0  0  0  0  0  0  0  0
    6.3563   31.0652   25.4638 H   0  0  0  0  0  0  0  0  0  0  0  0
    6.7050   32.4703   23.5992 H   0  0  0  0  0  0  0  0  0  0  0  0
    4.4078   32.0738   22.1588 H   0  0  0  0  0  0  0  0  0  0  0  0
    4.4228   29.6340   22.4418 H   0  0  0  0  0  0  0  0  0  0  0  0
    2.2933   31.0425   23.7951 H   0  0  0  0  0  0  0  0  0  0  0  0
    2.2717   29.6034   22.7196 H   0  0  0  0  0  0  0  0  0  0  0  0
    2.6655   29.7377   25.5668 H   0  0  0  0  0  0  0  0  0  0  0  0
    4.2889   32.2720   24.9935 H   0  0  0  0  0  0  0  0  0  0  0  0
  1  2  1  0
  2  3  2  0
  3  4  1  0
  4  5  1  0
  5  6  2  0
  5  7  1  0
  7  8  1  0
  8  9  2  0
  4 10  1  0
 10 11  1  0
 11 12  1  0
 12 13  1  0
 13 14  1  0
 13 15  1  0
 15 16  1  0
 12 17  1  0
 11 18  1  0
  8  2  1  0
 14 10  1  0
  1 19  1  0
  1 20  1  0
  1 21  1  0
  3 22  1  0
  7 23  1  0
 10 24  1  6
 11 25  1  6
 12 26  1  1
 13 27  1  6
 15 28  1  0
 15 29  1  0
 16 30  1  0
 17 31  1  0
M  END
