
     RDKit          3D

 54 56  0  0  0  0  0  0  0  0999 V2000
    2.5610   33.8170   22.6790 C   0  0  0  0  0  0  0  0  0  0  0  0
    3.0410   32.6420   23.4890 C   0  0  0  0  0  0  0  0  0  0  0  0
    2.7850   32.5250   24.6820 O   0  0  0  0  0  0  0  0  0  0  0  0
    3.7590   31.7200   22.7680 N   0  0  0  0  0  0  0  0  0  0  0  0
    4.2570   30.4850   23.3600 C   0  0  1  0  0  0  0  0  0  0  0  0
    3.6800   29.2050   22.7060 C   0  0  0  0  0  0  0  0  0  0  0  0
    4.4930   28.5980   21.5620 C   0  0  0  0  0  0  0  0  0  0  0  0
    4.9340   29.6550   20.5860 C   0  0  0  0  0  0  0  0  0  0  0  0
    4.3200   29.7350   19.3220 C   0  0  0  0  0  0  0  0  0  0  0  0
    4.6640   30.7380   18.4090 C   0  0  0  0  0  0  0  0  0  0  0  0
    5.6010   31.7120   18.7890 C   0  0  0  0  0  0  0  0  0  0  0  0
    6.2190   31.6340   20.0530 C   0  0  0  0  0  0  0  0  0  0  0  0
    5.9160   30.5930   20.9610 C   0  0  0  0  0  0  0  0  0  0  0  0
    6.5900   30.4970   22.3130 C   0  0  0  0  0  0  0  0  0  0  0  0
    7.9240   30.3020   22.1900 C   0  0  0  0  0  0  0  0  0  0  0  0
    8.9430   30.1330   23.0460 C   0  0  0  0  0  0  0  0  0  0  0  0
    8.9510   30.2540   24.3800 C   0  0  0  0  0  0  0  0  0  0  0  0
    7.7230   30.8220   25.0840 C   0  0  0  0  0  0  0  0  0  0  0  0
    7.8880   31.5830   26.0210 O   0  0  0  0  0  0  0  0  0  0  0  0
    6.2810   30.5940   24.6880 C   0  0  0  0  0  0  0  0  0  0  0  0
    5.8050   30.5380   23.4280 C   0  0  0  0  0  0  0  0  0  0  0  0
   10.0180   29.9920   25.2200 O   0  0  0  0  0  0  0  0  0  0  0  0
    9.9960   28.8070   26.0030 C   0  0  0  0  0  0  0  0  0  0  0  0
    7.1970   32.5520   20.3750 O   0  0  0  0  0  0  0  0  0  0  0  0
    6.6380   33.7040   21.0040 C   0  0  0  0  0  0  0  0  0  0  0  0
    6.0350   32.7260   17.9660 O   0  0  0  0  0  0  0  0  0  0  0  0
    7.0080   32.3350   17.0010 C   0  0  0  0  0  0  0  0  0  0  0  0
    4.1330   30.8290   17.1490 O   0  0  0  0  0  0  0  0  0  0  0  0
    2.7170   30.7730   17.0220 C   0  0  0  0  0  0  0  0  0  0  0  0
    2.2331   34.6196   23.3560 H   0  0  0  0  0  0  0  0  0  0  0  0
    3.3810   34.1846   22.0446 H   0  0  0  0  0  0  0  0  0  0  0  0
    1.7182   33.5052   22.0446 H   0  0  0  0  0  0  0  0  0  0  0  0
    3.9524   31.9079   21.7739 H   0  0  0  0  0  0  0  0  0  0  0  0
    3.8832   30.4123   24.3920 H   0  0  0  0  0  0  0  0  0  0  0  0
    3.5867   28.4410   23.4919 H   0  0  0  0  0  0  0  0  0  0  0  0
    2.7260   29.5136   22.2536 H   0  0  0  0  0  0  0  0  0  0  0  0
    5.3817   28.1008   21.9780 H   0  0  0  0  0  0  0  0  0  0  0  0
    3.8577   27.8755   21.0288 H   0  0  0  0  0  0  0  0  0  0  0  0
    3.5547   28.9945   19.0465 H   0  0  0  0  0  0  0  0  0  0  0  0
    8.2494   30.2760   21.1396 H   0  0  0  0  0  0  0  0  0  0  0  0
    9.9049   29.8569   22.5893 H   0  0  0  0  0  0  0  0  0  0  0  0
    5.5541   30.4618   25.5029 H   0  0  0  0  0  0  0  0  0  0  0  0
   10.0009   29.0727   27.0704 H   0  0  0  0  0  0  0  0  0  0  0  0
    9.0870   28.2320   25.7725 H   0  0  0  0  0  0  0  0  0  0  0  0
   10.8830   28.1987   25.7725 H   0  0  0  0  0  0  0  0  0  0  0  0
    6.6939   33.5887   22.0965 H   0  0  0  0  0  0  0  0  0  0  0  0
    7.2026   34.5979   20.7002 H   0  0  0  0  0  0  0  0  0  0  0  0
    5.5865   33.8137   20.7002 H   0  0  0  0  0  0  0  0  0  0  0  0
    7.9100   31.9725   17.5158 H   0  0  0  0  0  0  0  0  0  0  0  0
    6.5976   31.5320   16.3711 H   0  0  0  0  0  0  0  0  0  0  0  0
    7.2674   33.1987   16.3711 H   0  0  0  0  0  0  0  0  0  0  0  0
    2.2596   30.7549   18.0222 H   0  0  0  0  0  0  0  0  0  0  0  0
    2.3628   31.6578   16.4728 H   0  0  0  0  0  0  0  0  0  0  0  0
    2.4338   29.8630   16.4728 H   0  0  0  0  0  0  0  0  0  0  0  0
  1  2  1  0
  2  3  2  0
  2  4  1  0
  4  5  1  0
  5  6  1  0
  6  7  1  0
  7  8  1  0
  8  9  2  0
  9 10  1  0
 10 11  2  0
 11 12  1  0
 12 13  2  0
 13 14  1  0
 14 15  2  0
 15 16  1  0
 16 17  2  0
 17 18  1  0
 18 19  2  0
 18 20  1  0
 20 21  2  0
 17 22  1  0
 22 23  1  0
 12 24  1  0
 24 25  1  0
 11 26  1  0
 26 27  1  0
 10 28  1  0
 28 29  1  0
 21  5  1  0
 13  8  1  0
 21 14  1  0
  1 30  1  0
  1 31  1  0
  1 32  1  0
  4 33  1  0
  5 34  1  1
  6 35  1  0
  6 36  1  0
  7 37  1  0
  7 38  1  0
  9 39  1  0
 15 40  1  0
 16 41  1  0
 20 42  1  0
 23 43  1  0
 23 44  1  0
 23 45  1  0
 25 46  1  0
 25 47  1  0
 25 48  1  0
 27 49  1  0
 27 50  1  0
 27 51  1  0
 29 52  1  0
 29 53  1  0
 29 54  1  0
M  END
