
     RDKit          3D

 52 54  0  0  0  0  0  0  0  0999 V2000
    6.5460   32.7810   21.1390 C   0  0  0  0  0  0  0  0  0  0  0  0
    6.7650   31.2800   21.4410 C   0  0  0  0  0  0  0  0  0  0  0  0
    7.1550   30.9890   22.8290 N   0  0  0  0  0  0  0  0  0  0  0  0
    6.7420   32.0610   23.7550 C   0  0  0  0  0  0  0  0  0  0  0  0
    5.4280   32.7400   23.3110 C   0  0  0  0  0  0  0  0  0  0  0  0
    5.5610   33.4440   22.0190 N   0  0  0  0  0  0  0  0  0  0  0  0
    4.2640   33.6400   21.3540 C   0  0  0  0  0  0  0  0  0  0  0  0
    3.7470   32.4350   20.5340 C   0  0  0  0  0  0  0  0  0  0  0  0
    2.9590   31.4980   21.2680 O   0  0  0  0  0  0  0  0  0  0  0  0
    3.2620   30.1390   20.9820 C   0  0  0  0  0  0  0  0  0  0  0  0
    3.4040   29.3050   22.2480 C   0  0  0  0  0  0  0  0  0  0  0  0
    3.9540   29.6030   23.2950 O   0  0  0  0  0  0  0  0  0  0  0  0
    2.8320   28.0870   22.1150 O   0  0  0  0  0  0  0  0  0  0  0  0
    8.5450   30.5240   23.0510 C   0  0  0  0  0  0  0  0  0  0  0  0
    8.6960   28.9960   23.1300 C   0  0  0  0  0  0  0  0  0  0  0  0
    7.6010   28.2040   23.5190 C   0  0  0  0  0  0  0  0  0  0  0  0
    7.7110   26.8140   23.6030 C   0  0  0  0  0  0  0  0  0  0  0  0
    8.9160   26.1900   23.2930 C   0  0  0  0  0  0  0  0  0  0  0  0
   10.0110   26.9530   22.8970 C   0  0  0  0  0  0  0  0  0  0  0  0
    9.9020   28.3430   22.8150 C   0  0  0  0  0  0  0  0  0  0  0  0
    9.2840   31.2920   24.1710 C   0  0  0  0  0  0  0  0  0  0  0  0
    9.3670   30.8070   25.4890 C   0  0  0  0  0  0  0  0  0  0  0  0
   10.0100   31.5400   26.4920 C   0  0  0  0  0  0  0  0  0  0  0  0
   10.5630   32.7810   26.1960 C   0  0  0  0  0  0  0  0  0  0  0  0
   10.4690   33.3020   24.9100 C   0  0  0  0  0  0  0  0  0  0  0  0
    9.8260   32.5670   23.9090 C   0  0  0  0  0  0  0  0  0  0  0  0
   11.3530   33.6830   27.4300 Cl  0  0  0  0  0  0  0  0  0  0  0  0
    7.5102   33.2985   21.2507 H   0  0  0  0  0  0  0  0  0  0  0  0
    6.1432   32.8398   20.1171 H   0  0  0  0  0  0  0  0  0  0  0  0
    5.8271   30.7461   21.2283 H   0  0  0  0  0  0  0  0  0  0  0  0
    7.6002   30.9510   20.8052 H   0  0  0  0  0  0  0  0  0  0  0  0
    6.5967   31.6283   24.7558 H   0  0  0  0  0  0  0  0  0  0  0  0
    7.5326   32.8258   23.7609 H   0  0  0  0  0  0  0  0  0  0  0  0
    4.6487   31.9698   23.2140 H   0  0  0  0  0  0  0  0  0  0  0  0
    5.1657   33.4887   24.0730 H   0  0  0  0  0  0  0  0  0  0  0  0
    3.5171   33.8682   22.1287 H   0  0  0  0  0  0  0  0  0  0  0  0
    4.4158   34.4546   20.6305 H   0  0  0  0  0  0  0  0  0  0  0  0
    3.1335   32.8230   19.7075 H   0  0  0  0  0  0  0  0  0  0  0  0
    4.6396   31.8877   20.1967 H   0  0  0  0  0  0  0  0  0  0  0  0
    2.4528   29.7168   20.3681 H   0  0  0  0  0  0  0  0  0  0  0  0
    4.2236   30.1114   20.4486 H   0  0  0  0  0  0  0  0  0  0  0  0
    2.8542   27.4448   22.8681 H   0  0  0  0  0  0  0  0  0  0  0  0
    9.0781   30.7945   22.1276 H   0  0  0  0  0  0  0  0  0  0  0  0
    6.6427   28.6867   23.7610 H   0  0  0  0  0  0  0  0  0  0  0  0
    6.8446   26.2120   23.9144 H   0  0  0  0  0  0  0  0  0  0  0  0
    9.0029   25.0955   23.3608 H   0  0  0  0  0  0  0  0  0  0  0  0
   10.9628   26.4608   22.6485 H   0  0  0  0  0  0  0  0  0  0  0  0
   10.7726   28.9366   22.4992 H   0  0  0  0  0  0  0  0  0  0  0  0
    8.9180   29.8335   25.7353 H   0  0  0  0  0  0  0  0  0  0  0  0
   10.0780   31.1356   27.5127 H   0  0  0  0  0  0  0  0  0  0  0  0
   10.8987   34.2884   24.6811 H   0  0  0  0  0  0  0  0  0  0  0  0
    9.7414   32.9917   22.8978 H   0  0  0  0  0  0  0  0  0  0  0  0
  1  2  1  0
  2  3  1  0
  3  4  1  0
  4  5  1  0
  5  6  1  0
  6  7  1  0
  7  8  1  0
  8  9  1  0
  9 10  1  0
 10 11  1  0
 11 12  2  0
 11 13  1  0
  3 14  1  0
 14 15  1  0
 15 16  2  0
 16 17  1  0
 17 18  2  0
 18 19  1  0
 19 20  2  0
 14 21  1  0
 21 22  2  0
 22 23  1  0
 23 24  2  0
 24 25  1  0
 25 26  2  0
 24 27  1  0
  6  1  1  0
 20 15  1  0
 26 21  1  0
  1 28  1  0
  1 29  1  0
  2 30  1  0
  2 31  1  0
  4 32  1  0
  4 33  1  0
  5 34  1  0
  5 35  1  0
  7 36  1  0
  7 37  1  0
  8 38  1  0
  8 39  1  0
 10 40  1  0
 10 41  1  0
 13 42  1  0
 14 43  1  0
 16 44  1  0
 17 45  1  0
 18 46  1  0
 19 47  1  0
 20 48  1  0
 22 49  1  0
 23 50  1  0
 25 51  1  0
 26 52  1  0
M  END
