
     RDKit          3D

 34 36  0  0  0  0  0  0  0  0999 V2000
   10.3130   31.5830   28.4080 C   0  0  0  0  0  0  0  0  0  0  0  0
    9.7890   31.1880   27.1850 C   0  0  0  0  0  0  0  0  0  0  0  0
   10.3300   29.8940   26.9230 C   0  0  0  0  0  0  0  0  0  0  0  0
   11.1420   29.5400   27.9910 C   0  0  0  0  0  0  0  0  0  0  0  0
   11.1290   30.5860   28.8760 N   0  0  0  0  0  0  0  0  0  0  0  0
   11.7950   28.3190   28.0010 C   0  0  0  0  0  0  0  0  0  0  0  0
   11.6240   27.5090   26.9470 N   0  0  0  0  0  0  0  0  0  0  0  0
   10.8210   27.9260   25.9500 C   0  0  0  0  0  0  0  0  0  0  0  0
   10.1490   29.0840   25.8570 N   0  0  0  0  0  0  0  0  0  0  0  0
   12.5990   27.8810   29.0430 N   0  0  0  0  0  0  0  0  0  0  0  0
    8.8400   31.9840   26.3460 C   0  0  1  0  0  0  0  0  0  0  0  0
    9.2980   32.2740   24.9080 C   0  0  1  0  0  0  0  0  0  0  0  0
    7.9630   32.4570   24.1920 C   0  0  1  0  0  0  0  0  0  0  0  0
    7.0640   31.4200   24.8640 C   0  0  2  0  0  0  0  0  0  0  0  0
    7.5570   31.2530   26.2660 N   0  0  0  0  0  0  0  0  0  0  0  0
    7.1290   30.0560   24.1580 C   0  0  0  0  0  0  0  0  0  0  0  0
    7.2700   29.0220   25.1320 O   0  0  0  0  0  0  0  0  0  0  0  0
    7.4640   33.7790   24.4430 O   0  0  0  0  0  0  0  0  0  0  0  0
   10.0720   33.4740   24.7960 O   0  0  0  0  0  0  0  0  0  0  0  0
   10.1078   32.5365   28.9166 H   0  0  0  0  0  0  0  0  0  0  0  0
   11.6543   30.6183   29.7614 H   0  0  0  0  0  0  0  0  0  0  0  0
   10.7007   27.2307   25.1062 H   0  0  0  0  0  0  0  0  0  0  0  0
   13.0572   26.9601   28.9880 H   0  0  0  0  0  0  0  0  0  0  0  0
   12.7379   28.4766   29.8718 H   0  0  0  0  0  0  0  0  0  0  0  0
    8.7645   32.9608   26.8462 H   0  0  0  0  0  0  0  0  0  0  0  0
    9.9490   31.4825   24.5084 H   0  0  0  0  0  0  0  0  0  0  0  0
    8.0245   32.3335   23.1007 H   0  0  0  0  0  0  0  0  0  0  0  0
    6.0213   31.7679   24.8222 H   0  0  0  0  0  0  0  0  0  0  0  0
    6.8787   31.6496   26.9320 H   0  0  0  0  0  0  0  0  0  0  0  0
    6.2042   29.8957   23.5844 H   0  0  0  0  0  0  0  0  0  0  0  0
    7.9917   30.0371   23.4758 H   0  0  0  0  0  0  0  0  0  0  0  0
    7.2165   29.4140   26.0395 H   0  0  0  0  0  0  0  0  0  0  0  0
    7.4069   33.9303   25.4197 H   0  0  0  0  0  0  0  0  0  0  0  0
   10.2899   33.8118   25.7007 H   0  0  0  0  0  0  0  0  0  0  0  0
  1  2  2  0
  2  3  1  0
  3  4  2  0
  4  5  1  0
  4  6  1  0
  6  7  2  0
  7  8  1  0
  8  9  2  0
  6 10  1  0
  2 11  1  0
 11 12  1  0
 12 13  1  0
 13 14  1  0
 14 15  1  0
 14 16  1  0
 16 17  1  0
 13 18  1  0
 12 19  1  0
  5  1  1  0
  9  3  1  0
 15 11  1  0
  1 20  1  0
  5 21  1  0
  8 22  1  0
 10 23  1  0
 10 24  1  0
 11 25  1  1
 12 26  1  6
 13 27  1  6
 14 28  1  1
 15 29  1  0
 16 30  1  0
 16 31  1  0
 17 32  1  0
 18 33  1  0
 19 34  1  0
M  END
