
     RDKit          3D

 52 54  0  0  0  0  0  0  0  0999 V2000
    7.5350   33.6270   20.3030 C   0  0  0  0  0  0  0  0  0  0  0  0
    8.2640   33.4630   21.5120 O   0  0  0  0  0  0  0  0  0  0  0  0
    7.8810   32.2950   22.2370 C   0  0  0  0  0  0  0  0  0  0  0  0
    6.9850   32.6310   23.4280 C   0  0  0  0  0  0  0  0  0  0  0  0
    6.6830   31.4240   24.1220 O   0  0  0  0  0  0  0  0  0  0  0  0
    7.6290   30.9220   24.9780 C   0  0  0  0  0  0  0  0  0  0  0  0
    7.7930   29.5280   24.9720 C   0  0  0  0  0  0  0  0  0  0  0  0
    8.7380   28.9460   25.8210 C   0  0  0  0  0  0  0  0  0  0  0  0
    9.5170   29.7040   26.6860 C   0  0  0  0  0  0  0  0  0  0  0  0
    9.3460   31.0930   26.7170 C   0  0  0  0  0  0  0  0  0  0  0  0
    8.4000   31.6950   25.8480 C   0  0  0  0  0  0  0  0  0  0  0  0
   10.1650   31.7870   27.6300 C   0  0  0  0  0  0  0  0  0  0  0  0
   11.0680   31.1530   28.3990 N   0  0  0  0  0  0  0  0  0  0  0  0
   11.1430   29.8260   28.2730 C   0  0  0  0  0  0  0  0  0  0  0  0
   10.4030   29.0690   27.4580 N   0  0  0  0  0  0  0  0  0  0  0  0
   10.0100   33.1950   27.7560 N   0  0  0  0  0  0  0  0  0  0  0  0
   10.8800   34.1200   28.3790 C   0  0  0  0  0  0  0  0  0  0  0  0
   12.0620   34.4910   27.7190 C   0  0  0  0  0  0  0  0  0  0  0  0
   12.9860   35.3500   28.3200 C   0  0  0  0  0  0  0  0  0  0  0  0
   12.7530   35.8320   29.6070 C   0  0  0  0  0  0  0  0  0  0  0  0
   11.6030   35.4450   30.2940 C   0  0  0  0  0  0  0  0  0  0  0  0
   10.6820   34.5840   29.6860 C   0  0  0  0  0  0  0  0  0  0  0  0
   11.3720   35.9180   31.6240 C   0  0  0  0  0  0  0  0  0  0  0  0
   11.1790   36.3160   32.7410 C   0  0  0  0  0  0  0  0  0  0  0  0
    6.9970   28.8390   24.0930 O   0  0  0  0  0  0  0  0  0  0  0  0
    7.4470   27.5970   23.5440 C   0  0  0  0  0  0  0  0  0  0  0  0
    8.4340   27.7950   22.3880 C   0  0  0  0  0  0  0  0  0  0  0  0
    9.8000   27.5830   22.7670 O   0  0  0  0  0  0  0  0  0  0  0  0
   10.0500   26.2800   23.2770 C   0  0  0  0  0  0  0  0  0  0  0  0
    6.4862   33.8629   20.5363 H   0  0  0  0  0  0  0  0  0  0  0  0
    7.9744   34.4487   19.7185 H   0  0  0  0  0  0  0  0  0  0  0  0
    7.5801   32.6963   19.7185 H   0  0  0  0  0  0  0  0  0  0  0  0
    7.3356   31.6200   21.5611 H   0  0  0  0  0  0  0  0  0  0  0  0
    8.7946   31.8183   22.6219 H   0  0  0  0  0  0  0  0  0  0  0  0
    7.5085   33.3253   24.1018 H   0  0  0  0  0  0  0  0  0  0  0  0
    6.0568   33.1069   23.0786 H   0  0  0  0  0  0  0  0  0  0  0  0
    8.8691   27.8540   25.8038 H   0  0  0  0  0  0  0  0  0  0  0  0
    8.2720   32.7875   25.8599 H   0  0  0  0  0  0  0  0  0  0  0  0
   11.8838   29.3071   28.8991 H   0  0  0  0  0  0  0  0  0  0  0  0
    9.1551   33.5918   27.3406 H   0  0  0  0  0  0  0  0  0  0  0  0
   12.2644   34.0988   26.7114 H   0  0  0  0  0  0  0  0  0  0  0  0
   13.8964   35.6455   27.7779 H   0  0  0  0  0  0  0  0  0  0  0  0
   13.4741   36.5155   30.0792 H   0  0  0  0  0  0  0  0  0  0  0  0
    9.7884   34.2666   30.2434 H   0  0  0  0  0  0  0  0  0  0  0  0
   11.0023   36.6804   33.7637 H   0  0  0  0  0  0  0  0  0  0  0  0
    7.9430   27.0187   24.3374 H   0  0  0  0  0  0  0  0  0  0  0  0
    6.5684   27.0660   23.1489 H   0  0  0  0  0  0  0  0  0  0  0  0
    8.1799   27.0859   21.5864 H   0  0  0  0  0  0  0  0  0  0  0  0
    8.3454   28.8409   22.0591 H   0  0  0  0  0  0  0  0  0  0  0  0
   10.0444   26.3093   24.3766 H   0  0  0  0  0  0  0  0  0  0  0  0
    9.2675   25.5919   22.9245 H   0  0  0  0  0  0  0  0  0  0  0  0
   11.0316   25.9304   22.9245 H   0  0  0  0  0  0  0  0  0  0  0  0
  1  2  1  0
  2  3  1  0
  3  4  1  0
  4  5  1  0
  5  6  1  0
  6  7  2  0
  7  8  1  0
  8  9  2  0
  9 10  1  0
 10 11  2  0
 10 12  1  0
 12 13  2  0
 13 14  1  0
 14 15  2  0
 12 16  1  0
 16 17  1  0
 17 18  2  0
 18 19  1  0
 19 20  2  0
 20 21  1  0
 21 22  2  0
 21 23  1  0
 23 24  3  0
  7 25  1  0
 25 26  1  0
 26 27  1  0
 27 28  1  0
 28 29  1  0
 11  6  1  0
 15  9  1  0
 22 17  1  0
  1 30  1  0
  1 31  1  0
  1 32  1  0
  3 33  1  0
  3 34  1  0
  4 35  1  0
  4 36  1  0
  8 37  1  0
 11 38  1  0
 14 39  1  0
 16 40  1  0
 18 41  1  0
 19 42  1  0
 20 43  1  0
 22 44  1  0
 24 45  1  0
 26 46  1  0
 26 47  1  0
 27 48  1  0
 27 49  1  0
 29 50  1  0
 29 51  1  0
 29 52  1  0
M  END
