
     RDKit          3D

 56 59  0  0  0  0  0  0  0  0999 V2000
    3.3870   27.9990   20.8610 C   0  0  0  0  0  0  0  0  0  0  0  0
    4.8590   28.4480   20.8540 C   0  0  2  0  0  0  0  0  0  0  0  0
    5.2560   29.0210   22.2370 C   0  0  1  0  0  0  0  0  0  0  0  0
    6.7590   28.9450   22.5750 C   0  0  1  0  0  0  0  0  0  0  0  0
    7.0370   29.4200   24.0460 C   0  0  1  0  0  0  0  0  0  0  0  0
    8.5750   29.4300   24.2920 C   0  0  1  0  0  0  0  0  0  0  0  0
    9.1350   30.5640   23.4210 C   0  0  0  0  0  0  0  0  0  0  0  0
   10.0820   30.3760   22.6520 O   0  0  0  0  0  0  0  0  0  0  0  0
    8.5120   31.9150   23.5440 C   0  0  0  0  0  0  0  0  0  0  0  0
    7.2560   31.9970   24.0370 C   0  0  0  0  0  0  0  0  0  0  0  0
    6.4020   30.7940   24.4090 C   0  0  1  0  0  0  0  0  0  0  0  0
    4.9930   30.9400   23.7690 C   0  0  0  0  0  0  0  0  0  0  0  0
    4.0050   31.3550   24.3700 O   0  0  0  0  0  0  0  0  0  0  0  0
    4.8990   30.4640   22.3710 C   0  0  0  0  0  0  0  0  0  0  0  0
    4.7380   31.3140   21.3480 C   0  0  0  0  0  0  0  0  0  0  0  0
    4.9300   30.8350   19.9540 C   0  0  0  0  0  0  0  0  0  0  0  0
    5.0550   29.4460   19.7230 C   0  0  0  0  0  0  0  0  0  0  0  0
    5.2890   28.9650   18.4220 C   0  0  0  0  0  0  0  0  0  0  0  0
    5.3980   29.8450   17.3500 C   0  0  0  0  0  0  0  0  0  0  0  0
    5.2650   31.2140   17.5590 C   0  0  0  0  0  0  0  0  0  0  0  0
    5.0320   31.6990   18.8480 C   0  0  0  0  0  0  0  0  0  0  0  0
    4.9030   33.0540   19.0320 O   0  0  0  0  0  0  0  0  0  0  0  0
    4.5500   32.6600   21.5660 O   0  0  0  0  0  0  0  0  0  0  0  0
    6.2110   30.8540   25.8290 O   0  0  0  0  0  0  0  0  0  0  0  0
    6.6240   33.2130   24.2880 O   0  0  0  0  0  0  0  0  0  0  0  0
    9.2430   33.1580   23.1680 C   0  0  0  0  0  0  0  0  0  0  0  0
    8.7490   34.0090   22.4320 O   0  0  0  0  0  0  0  0  0  0  0  0
   10.4960   33.3150   23.6650 N   0  0  0  0  0  0  0  0  0  0  0  0
    9.0520   29.6170   25.6920 N   0  0  0  0  0  0  0  0  0  0  0  0
    9.7790   30.8860   25.8500 C   0  0  0  0  0  0  0  0  0  0  0  0
    9.9350   28.5230   26.1160 C   0  0  0  0  0  0  0  0  0  0  0  0
    7.2120   27.5950   22.4630 O   0  0  0  0  0  0  0  0  0  0  0  0
    3.0408   27.8934   21.8997 H   0  0  0  0  0  0  0  0  0  0  0  0
    2.7720   28.7504   20.3441 H   0  0  0  0  0  0  0  0  0  0  0  0
    3.2961   27.0323   20.3441 H   0  0  0  0  0  0  0  0  0  0  0  0
    5.5254   27.5914   20.6744 H   0  0  0  0  0  0  0  0  0  0  0  0
    4.6913   28.3754   22.9257 H   0  0  0  0  0  0  0  0  0  0  0  0
    7.2897   29.6007   21.8689 H   0  0  0  0  0  0  0  0  0  0  0  0
    6.5432   28.7001   24.7153 H   0  0  0  0  0  0  0  0  0  0  0  0
    8.9315   28.4203   24.0401 H   0  0  0  0  0  0  0  0  0  0  0  0
    5.3867   27.8828   18.2506 H   0  0  0  0  0  0  0  0  0  0  0  0
    5.5892   29.4587   16.3380 H   0  0  0  0  0  0  0  0  0  0  0  0
    5.3430   31.9119   16.7123 H   0  0  0  0  0  0  0  0  0  0  0  0
    4.7376   33.4170   19.9381 H   0  0  0  0  0  0  0  0  0  0  0  0
    4.4326   33.2741   20.7984 H   0  0  0  0  0  0  0  0  0  0  0  0
    7.0488   30.5908   26.2861 H   0  0  0  0  0  0  0  0  0  0  0  0
    5.7025   33.2266   24.6496 H   0  0  0  0  0  0  0  0  0  0  0  0
   11.0403   34.1580   23.4327 H   0  0  0  0  0  0  0  0  0  0  0  0
   10.9027   32.5911   24.2745 H   0  0  0  0  0  0  0  0  0  0  0  0
    9.9048   31.1057   26.9205 H   0  0  0  0  0  0  0  0  0  0  0  0
   10.7672   30.8042   25.3738 H   0  0  0  0  0  0  0  0  0  0  0  0
    9.2086   31.6971   25.3738 H   0  0  0  0  0  0  0  0  0  0  0  0
    9.9674   28.4829   27.2148 H   0  0  0  0  0  0  0  0  0  0  0  0
    9.5506   27.5692   25.7254 H   0  0  0  0  0  0  0  0  0  0  0  0
   10.9484   28.6974   25.7254 H   0  0  0  0  0  0  0  0  0  0  0  0
    7.3399   27.2137   23.3676 H   0  0  0  0  0  0  0  0  0  0  0  0
  1  2  1  0
  2  3  1  0
  3  4  1  0
  4  5  1  0
  5  6  1  0
  6  7  1  0
  7  8  2  0
  7  9  1  0
  9 10  2  0
 10 11  1  0
 11 12  1  0
 12 13  2  0
 12 14  1  0
 14 15  2  0
 15 16  1  0
 16 17  2  0
 17 18  1  0
 18 19  2  0
 19 20  1  0
 20 21  2  0
 21 22  1  0
 15 23  1  0
 11 24  1  1
 10 25  1  0
  9 26  1  0
 26 27  2  0
 26 28  1  0
  6 29  1  0
 29 30  1  0
 29 31  1  0
  4 32  1  0
 17  2  1  0
 14  3  1  0
 11  5  1  0
 21 16  1  0
  1 33  1  0
  1 34  1  0
  1 35  1  0
  2 36  1  6
  3 37  1  1
  4 38  1  6
  5 39  1  1
  6 40  1  6
 18 41  1  0
 19 42  1  0
 20 43  1  0
 22 44  1  0
 23 45  1  0
 24 46  1  0
 25 47  1  0
 28 48  1  0
 28 49  1  0
 30 50  1  0
 30 51  1  0
 30 52  1  0
 31 53  1  0
 31 54  1  0
 31 55  1  0
 32 56  1  0
M  END
