
     RDKit          3D

 40 41  0  0  0  0  0  0  0  0999 V2000
   61.0350  140.6450   89.5430 C   0  0  0  0  0  0  0  0  0  0  0  0
   60.6250  139.1750   89.5740 C   0  0  0  0  0  0  0  0  0  0  0  0
   60.6650  138.4940   88.1940 C   0  0  0  0  0  0  0  0  0  0  0  0
   61.8310  137.5100   88.0420 C   0  0  0  0  0  0  0  0  0  0  0  0
   61.5660  136.5230   86.9050 C   0  0  0  0  0  0  0  0  0  0  0  0
   60.3270  135.7940   87.1490 N   0  0  0  0  0  0  0  0  0  0  0  0
   59.3310  138.9730   90.2650 N   0  0  0  0  0  0  0  0  0  0  0  0
   59.3280  138.2250   91.4790 C   0  0  0  0  0  0  0  0  0  0  0  0
   58.1690  138.2210   92.2790 C   0  0  0  0  0  0  0  0  0  0  0  0
   58.1880  137.4900   93.4860 C   0  0  0  0  0  0  0  0  0  0  0  0
   59.3390  136.7790   93.8740 C   0  0  0  0  0  0  0  0  0  0  0  0
   60.4730  136.7770   93.0670 C   0  0  0  0  0  0  0  0  0  0  0  0
   60.4590  137.4980   91.8740 C   0  0  0  0  0  0  0  0  0  0  0  0
   61.6430  136.1200   93.3250 O   0  0  0  0  0  0  0  0  0  0  0  0
   62.6940  136.2680   92.3780 C   0  0  0  0  0  0  0  0  0  0  0  0
   57.0330  137.4970   94.2800 C   0  0  0  0  0  0  0  0  0  0  0  0
   55.9110  138.2070   93.8710 C   0  0  0  0  0  0  0  0  0  0  0  0
   55.9810  138.8930   92.6750 C   0  0  0  0  0  0  0  0  0  0  0  0
   57.0750  138.9160   91.8840 N   0  0  0  0  0  0  0  0  0  0  0  0
   61.1391  141.0184   90.5724 H   0  0  0  0  0  0  0  0  0  0  0  0
   61.9958  140.7467   89.0171 H   0  0  0  0  0  0  0  0  0  0  0  0
   60.2655  141.2293   89.0171 H   0  0  0  0  0  0  0  0  0  0  0  0
   61.3944  138.6646   90.1719 H   0  0  0  0  0  0  0  0  0  0  0  0
   59.7228  137.9457   88.0468 H   0  0  0  0  0  0  0  0  0  0  0  0
   60.8033  139.2849   87.4421 H   0  0  0  0  0  0  0  0  0  0  0  0
   62.7509  138.0723   87.8239 H   0  0  0  0  0  0  0  0  0  0  0  0
   61.9395  136.9455   88.9798 H   0  0  0  0  0  0  0  0  0  0  0  0
   61.4822  137.0748   85.9571 H   0  0  0  0  0  0  0  0  0  0  0  0
   62.3989  135.8066   86.8504 H   0  0  0  0  0  0  0  0  0  0  0  0
   60.1753  135.7048   88.1639 H   0  0  0  0  0  0  0  0  0  0  0  0
   59.5388  136.3060   86.7278 H   0  0  0  0  0  0  0  0  0  0  0  0
   58.4583  139.3616   89.8799 H   0  0  0  0  0  0  0  0  0  0  0  0
   59.3424  136.2209   94.8219 H   0  0  0  0  0  0  0  0  0  0  0  0
   61.3517  137.4962   91.2312 H   0  0  0  0  0  0  0  0  0  0  0  0
   63.6486  136.4024   92.9077 H   0  0  0  0  0  0  0  0  0  0  0  0
   62.7483  135.3686   91.7470 H   0  0  0  0  0  0  0  0  0  0  0  0
   62.4978  137.1474   91.7470 H   0  0  0  0  0  0  0  0  0  0  0  0
   57.0149  136.9396   95.2282 H   0  0  0  0  0  0  0  0  0  0  0  0
   54.9957  138.2221   94.4809 H   0  0  0  0  0  0  0  0  0  0  0  0
   55.0933  139.4538   92.3472 H   0  0  0  0  0  0  0  0  0  0  0  0
  1  2  1  0
  2  3  1  0
  3  4  1  0
  4  5  1  0
  5  6  1  0
  2  7  1  0
  7  8  1  0
  8  9  2  0
  9 10  1  0
 10 11  2  0
 11 12  1  0
 12 13  2  0
 12 14  1  0
 14 15  1  0
 10 16  1  0
 16 17  2  0
 17 18  1  0
 18 19  2  0
 13  8  1  0
 19  9  1  0
  1 20  1  0
  1 21  1  0
  1 22  1  0
  2 23  1  0
  3 24  1  0
  3 25  1  0
  4 26  1  0
  4 27  1  0
  5 28  1  0
  5 29  1  0
  6 30  1  0
  6 31  1  0
  7 32  1  0
 11 33  1  0
 13 34  1  0
 15 35  1  0
 15 36  1  0
 15 37  1  0
 16 38  1  0
 17 39  1  0
 18 40  1  0
M  END
