
     RDKit          3D

 60 63  0  0  0  0  0  0  0  0999 V2000
   10.6800   27.6970   24.9580 C   0  0  0  0  0  0  0  0  0  0  0  0
    9.9830   28.4090   23.8690 N   0  0  0  0  0  0  0  0  0  0  0  0
    9.8880   27.4730   22.7320 C   0  0  0  0  0  0  0  0  0  0  0  0
    8.6290   28.8900   24.2910 C   0  0  2  0  0  0  0  0  0  0  0  0
    8.0030   29.8640   23.2580 C   0  0  1  0  0  0  0  0  0  0  0  0
    6.5180   30.1570   23.5690 C   0  0  0  0  0  0  0  0  0  0  0  0
    5.8710   31.0970   22.5400 C   0  0  2  0  0  0  0  0  0  0  0  0
    5.2610   30.3410   21.3540 C   0  0  0  0  0  0  0  0  0  0  0  0
    4.5480   31.2800   20.4020 C   0  0  0  0  0  0  0  0  0  0  0  0
    3.4520   30.8580   19.6160 C   0  0  0  0  0  0  0  0  0  0  0  0
    2.8020   31.8060   18.8040 C   0  0  0  0  0  0  0  0  0  0  0  0
    3.2330   33.1280   18.7210 C   0  0  0  0  0  0  0  0  0  0  0  0
    4.3390   33.5300   19.4500 C   0  0  0  0  0  0  0  0  0  0  0  0
    5.0010   32.6230   20.2900 C   0  0  0  0  0  0  0  0  0  0  0  0
    6.2060   33.0810   21.0360 C   0  0  0  0  0  0  0  0  0  0  0  0
    6.8150   32.1320   22.0090 C   0  0  0  0  0  0  0  0  0  0  0  0
    8.1270   32.2050   22.3100 C   0  0  0  0  0  0  0  0  0  0  0  0
    8.9490   33.1970   21.7870 O   0  0  0  0  0  0  0  0  0  0  0  0
    8.8380   31.1630   23.1750 C   0  0  1  0  0  0  0  0  0  0  0  0
    9.1140   31.7730   24.5810 C   0  0  0  0  0  0  0  0  0  0  0  0
    8.9080   30.9180   25.7960 C   0  0  0  0  0  0  0  0  0  0  0  0
    8.6770   29.5950   25.6420 C   0  0  0  0  0  0  0  0  0  0  0  0
    8.4170   28.7320   26.7040 O   0  0  0  0  0  0  0  0  0  0  0  0
    8.9400   31.4830   27.1800 C   0  0  0  0  0  0  0  0  0  0  0  0
    8.1470   31.1170   28.0460 O   0  0  0  0  0  0  0  0  0  0  0  0
    9.8750   32.4240   27.4520 N   0  0  0  0  0  0  0  0  0  0  0  0
    9.5090   32.9330   24.7410 O   0  0  0  0  0  0  0  0  0  0  0  0
   10.0810   30.8520   22.5340 O   0  0  0  0  0  0  0  0  0  0  0  0
    6.6910   34.1930   20.8380 O   0  0  0  0  0  0  0  0  0  0  0  0
    4.7210   34.8360   19.2930 O   0  0  0  0  0  0  0  0  0  0  0  0
    2.9390   29.5590   19.5680 N   0  0  0  0  0  0  0  0  0  0  0  0
    2.5520   29.0120   20.8660 C   0  0  0  0  0  0  0  0  0  0  0  0
    3.5030   28.6260   18.6020 C   0  0  0  0  0  0  0  0  0  0  0  0
   10.3179   28.0669   25.9286 H   0  0  0  0  0  0  0  0  0  0  0  0
   10.4790   26.6185   24.8785 H   0  0  0  0  0  0  0  0  0  0  0  0
   11.7626   27.8750   24.8785 H   0  0  0  0  0  0  0  0  0  0  0  0
    9.7837   26.4455   23.1107 H   0  0  0  0  0  0  0  0  0  0  0  0
    9.0112   27.7286   22.1189 H   0  0  0  0  0  0  0  0  0  0  0  0
   10.7983   27.5472   22.1189 H   0  0  0  0  0  0  0  0  0  0  0  0
    8.0044   27.9874   24.3631 H   0  0  0  0  0  0  0  0  0  0  0  0
    8.0244   29.3768   22.2720 H   0  0  0  0  0  0  0  0  0  0  0  0
    5.9651   29.2061   23.5735 H   0  0  0  0  0  0  0  0  0  0  0  0
    6.4759   30.6566   24.5481 H   0  0  0  0  0  0  0  0  0  0  0  0
    5.0717   31.6035   23.1008 H   0  0  0  0  0  0  0  0  0  0  0  0
    6.0642   29.8227   20.8097 H   0  0  0  0  0  0  0  0  0  0  0  0
    4.5251   29.6230   21.7451 H   0  0  0  0  0  0  0  0  0  0  0  0
    1.9262   31.4932   18.2165 H   0  0  0  0  0  0  0  0  0  0  0  0
    2.6991   33.8464   18.0816 H   0  0  0  0  0  0  0  0  0  0  0  0
    9.9302   32.8382   28.3934 H   0  0  0  0  0  0  0  0  0  0  0  0
   10.5310   32.7256   26.7174 H   0  0  0  0  0  0  0  0  0  0  0  0
    9.6715   33.2790   25.6542 H   0  0  0  0  0  0  0  0  0  0  0  0
   10.7724   30.6790   23.2211 H   0  0  0  0  0  0  0  0  0  0  0  0
    7.4923   34.4806   21.3432 H   0  0  0  0  0  0  0  0  0  0  0  0
    5.5046   35.1853   19.7869 H   0  0  0  0  0  0  0  0  0  0  0  0
    2.9871   29.6270   21.6675 H   0  0  0  0  0  0  0  0  0  0  0  0
    1.4555   29.0173   20.9540 H   0  0  0  0  0  0  0  0  0  0  0  0
    2.9219   27.9798   20.9540 H   0  0  0  0  0  0  0  0  0  0  0  0
    4.0008   27.8026   19.1351 H   0  0  0  0  0  0  0  0  0  0  0  0
    2.6984   28.2208   17.9707 H   0  0  0  0  0  0  0  0  0  0  0  0
    4.2357   29.1501   17.9707 H   0  0  0  0  0  0  0  0  0  0  0  0
  1  2  1  0
  2  3  1  0
  2  4  1  0
  4  5  1  0
  5  6  1  0
  6  7  1  0
  7  8  1  0
  8  9  1  0
  9 10  2  0
 10 11  1  0
 11 12  2  0
 12 13  1  0
 13 14  2  0
 14 15  1  0
 15 16  2  0
 16 17  1  0
 17 18  2  0
 17 19  1  0
 19 20  1  0
 20 21  2  0
 21 22  1  0
 22 23  2  0
 21 24  1  0
 24 25  2  0
 24 26  1  0
 20 27  1  0
 19 28  1  1
 15 29  1  0
 13 30  1  0
 10 31  1  0
 31 32  1  0
 31 33  1  0
 22  4  1  0
 19  5  1  0
 16  7  1  0
 14  9  1  0
  1 34  1  0
  1 35  1  0
  1 36  1  0
  3 37  1  0
  3 38  1  0
  3 39  1  0
  4 40  1  6
  5 41  1  1
  6 42  1  0
  6 43  1  0
  7 44  1  1
  8 45  1  0
  8 46  1  0
 11 47  1  0
 12 48  1  0
 26 49  1  0
 26 50  1  0
 27 51  1  0
 28 52  1  0
 29 53  1  0
 30 54  1  0
 32 55  1  0
 32 56  1  0
 32 57  1  0
 33 58  1  0
 33 59  1  0
 33 60  1  0
M  END
