
     RDKit          3D

 41 43  0  0  0  0  0  0  0  0999 V2000
   48.2860  135.6490   91.7880 C   0  0  0  0  0  0  0  0  0  0  0  0
   48.1300  136.5890   92.8420 O   0  0  0  0  0  0  0  0  0  0  0  0
   48.5030  137.8860   92.6040 C   0  0  0  0  0  0  0  0  0  0  0  0
   49.7810  138.2780   93.0380 C   0  0  0  0  0  0  0  0  0  0  0  0
   50.2200  139.5760   92.7400 C   0  0  0  0  0  0  0  0  0  0  0  0
   49.4470  140.4770   92.0770 N   0  0  0  0  0  0  0  0  0  0  0  0
   48.2130  140.0830   91.7090 C   0  0  0  0  0  0  0  0  0  0  0  0
   47.7040  138.8170   91.9420 C   0  0  0  0  0  0  0  0  0  0  0  0
   51.5980  140.0460   93.1330 C   0  0  0  0  0  0  0  0  0  0  0  0
   52.6430  140.4110   91.6910 S   0  0  0  0  0  0  0  0  0  0  0  0
   52.1960  139.5880   90.5150 O   0  0  0  0  0  0  0  0  0  0  0  0
   54.1210  139.5820   92.3000 C   0  0  0  0  0  0  0  0  0  0  0  0
   54.2290  138.9700   93.4590 N   0  0  0  0  0  0  0  0  0  0  0  0
   55.5180  138.4950   93.4890 C   0  0  0  0  0  0  0  0  0  0  0  0
   56.2000  138.8210   92.3230 C   0  0  0  0  0  0  0  0  0  0  0  0
   55.2840  139.5190   91.5820 N   0  0  0  0  0  0  0  0  0  0  0  0
   57.5270  138.4570   92.0870 C   0  0  0  0  0  0  0  0  0  0  0  0
   58.1800  137.7190   93.0860 C   0  0  0  0  0  0  0  0  0  0  0  0
   57.5190  137.3930   94.2760 C   0  0  0  0  0  0  0  0  0  0  0  0
   56.1840  137.7730   94.4880 C   0  0  0  0  0  0  0  0  0  0  0  0
   59.4760  137.3990   92.7840 O   0  0  0  0  0  0  0  0  0  0  0  0
   60.0970  136.4290   93.6110 C   0  0  0  0  0  0  0  0  0  0  0  0
   60.7410  137.0570   94.6270 F   0  0  0  0  0  0  0  0  0  0  0  0
   61.0540  135.8160   92.8680 F   0  0  0  0  0  0  0  0  0  0  0  0
   50.6720  137.4510   93.6740 O   0  0  0  0  0  0  0  0  0  0  0  0
   51.5470  136.7420   92.7980 C   0  0  0  0  0  0  0  0  0  0  0  0
   48.4522  134.6475   92.2115 H   0  0  0  0  0  0  0  0  0  0  0  0
   47.3773  135.6388   91.1683 H   0  0  0  0  0  0  0  0  0  0  0  0
   49.1493  135.9329   91.1683 H   0  0  0  0  0  0  0  0  0  0  0  0
   47.5707  140.8112   91.1920 H   0  0  0  0  0  0  0  0  0  0  0  0
   46.6892  138.5509   91.6114 H   0  0  0  0  0  0  0  0  0  0  0  0
   51.5005  140.9590   93.7388 H   0  0  0  0  0  0  0  0  0  0  0  0
   52.0798  139.2357   93.6999 H   0  0  0  0  0  0  0  0  0  0  0  0
   55.4426  139.9250   90.6488 H   0  0  0  0  0  0  0  0  0  0  0  0
   58.0401  138.7375   91.1553 H   0  0  0  0  0  0  0  0  0  0  0  0
   58.0531  136.8310   95.0563 H   0  0  0  0  0  0  0  0  0  0  0  0
   55.6693  137.5081   95.4234 H   0  0  0  0  0  0  0  0  0  0  0  0
   59.3459  135.7245   93.9977 H   0  0  0  0  0  0  0  0  0  0  0  0
   52.2666  136.1589   93.3915 H   0  0  0  0  0  0  0  0  0  0  0  0
   50.9591  136.0624   92.1636 H   0  0  0  0  0  0  0  0  0  0  0  0
   52.0899  137.4580   92.1636 H   0  0  0  0  0  0  0  0  0  0  0  0
  1  2  1  0
  2  3  1  0
  3  4  2  0
  4  5  1  0
  5  6  2  0
  6  7  1  0
  7  8  2  0
  5  9  1  0
  9 10  1  0
 10 11  2  0
 10 12  1  0
 12 13  2  0
 13 14  1  0
 14 15  2  0
 15 16  1  0
 15 17  1  0
 17 18  2  0
 18 19  1  0
 19 20  2  0
 18 21  1  0
 21 22  1  0
 22 23  1  0
 22 24  1  0
  4 25  1  0
 25 26  1  0
  8  3  1  0
 16 12  1  0
 20 14  1  0
  1 27  1  0
  1 28  1  0
  1 29  1  0
  7 30  1  0
  8 31  1  0
  9 32  1  0
  9 33  1  0
 16 34  1  0
 17 35  1  0
 19 36  1  0
 20 37  1  0
 22 38  1  0
 26 39  1  0
 26 40  1  0
 26 41  1  0
M  END
