
     RDKit          3D

 43 45  0  0  0  0  0  0  0  0999 V2000
   53.4440  142.3490   96.9730 C   0  0  0  0  0  0  0  0  0  0  0  0
   53.7890  141.2580   96.0090 C   0  0  0  0  0  0  0  0  0  0  0  0
   54.0930  141.5540   94.6920 C   0  0  0  0  0  0  0  0  0  0  0  0
   54.4070  140.6300   93.7610 N   0  0  0  0  0  0  0  0  0  0  0  0
   54.4630  139.3260   94.1390 C   0  0  0  0  0  0  0  0  0  0  0  0
   54.1680  138.9120   95.4470 C   0  0  0  0  0  0  0  0  0  0  0  0
   53.7800  139.9050   96.3600 C   0  0  0  0  0  0  0  0  0  0  0  0
   53.4530  139.5580   97.6490 O   0  0  0  0  0  0  0  0  0  0  0  0
   52.0380  139.4050   97.7780 C   0  0  0  0  0  0  0  0  0  0  0  0
   54.2090  137.4640   95.8500 C   0  0  0  0  0  0  0  0  0  0  0  0
   54.8590  138.3580   93.0520 C   0  0  0  0  0  0  0  0  0  0  0  0
   55.7750  139.1880   91.7160 S   0  0  0  0  0  0  0  0  0  0  0  0
   55.3720  138.6060   90.3900 O   0  0  0  0  0  0  0  0  0  0  0  0
   57.3740  138.4400   92.0730 C   0  0  0  0  0  0  0  0  0  0  0  0
   57.6560  137.7270   93.1430 N   0  0  0  0  0  0  0  0  0  0  0  0
   58.9750  137.3740   92.9920 C   0  0  0  0  0  0  0  0  0  0  0  0
   59.4980  137.8810   91.8080 C   0  0  0  0  0  0  0  0  0  0  0  0
   58.4520  138.5600   91.2410 N   0  0  0  0  0  0  0  0  0  0  0  0
   60.8170  137.6690   91.4010 C   0  0  0  0  0  0  0  0  0  0  0  0
   61.6360  136.9060   92.2460 C   0  0  0  0  0  0  0  0  0  0  0  0
   61.1340  136.3860   93.4440 C   0  0  0  0  0  0  0  0  0  0  0  0
   59.8020  136.6130   93.8290 C   0  0  0  0  0  0  0  0  0  0  0  0
   62.9160  136.7430   91.7810 O   0  0  0  0  0  0  0  0  0  0  0  0
   63.1020  136.7920   90.3720 C   0  0  0  0  0  0  0  0  0  0  0  0
   53.5609  141.9793   98.0024 H   0  0  0  0  0  0  0  0  0  0  0  0
   54.1151  143.2057   96.8127 H   0  0  0  0  0  0  0  0  0  0  0  0
   52.4024  142.6641   96.8127 H   0  0  0  0  0  0  0  0  0  0  0  0
   54.0776  142.6101   94.3847 H   0  0  0  0  0  0  0  0  0  0  0  0
   51.7680  139.3758   98.8440 H   0  0  0  0  0  0  0  0  0  0  0  0
   51.5319  140.2537   97.2947 H   0  0  0  0  0  0  0  0  0  0  0  0
   51.7250  138.4678   97.2947 H   0  0  0  0  0  0  0  0  0  0  0  0
   54.2111  137.3887   96.9474 H   0  0  0  0  0  0  0  0  0  0  0  0
   53.3251  136.9465   95.4487 H   0  0  0  0  0  0  0  0  0  0  0  0
   55.1207  136.9974   95.4487 H   0  0  0  0  0  0  0  0  0  0  0  0
   55.4955  137.5735   93.4872 H   0  0  0  0  0  0  0  0  0  0  0  0
   53.9417  137.9275   92.6240 H   0  0  0  0  0  0  0  0  0  0  0  0
   58.4739  139.0703   90.3466 H   0  0  0  0  0  0  0  0  0  0  0  0
   61.1981  138.0836   90.4561 H   0  0  0  0  0  0  0  0  0  0  0  0
   61.7920  135.7906   94.0941 H   0  0  0  0  0  0  0  0  0  0  0  0
   59.4146  136.2001   94.7721 H   0  0  0  0  0  0  0  0  0  0  0  0
   64.1436  137.0664   90.1490 H   0  0  0  0  0  0  0  0  0  0  0  0
   62.8819  135.8052   89.9386 H   0  0  0  0  0  0  0  0  0  0  0  0
   62.4243  137.5423   89.9386 H   0  0  0  0  0  0  0  0  0  0  0  0
  1  2  1  0
  2  3  2  0
  3  4  1  0
  4  5  2  0
  5  6  1  0
  6  7  2  0
  7  8  1  0
  8  9  1  0
  6 10  1  0
  5 11  1  0
 11 12  1  0
 12 13  2  0
 12 14  1  0
 14 15  2  0
 15 16  1  0
 16 17  2  0
 17 18  1  0
 17 19  1  0
 19 20  2  0
 20 21  1  0
 21 22  2  0
 20 23  1  0
 23 24  1  0
  7  2  1  0
 18 14  1  0
 22 16  1  0
  1 25  1  0
  1 26  1  0
  1 27  1  0
  3 28  1  0
  9 29  1  0
  9 30  1  0
  9 31  1  0
 10 32  1  0
 10 33  1  0
 10 34  1  0
 11 35  1  0
 11 36  1  0
 18 37  1  0
 19 38  1  0
 21 39  1  0
 22 40  1  0
 24 41  1  0
 24 42  1  0
 24 43  1  0
M  END
