
     RDKit          3D

 32 34  0  0  0  0  0  0  0  0999 V2000
    8.8210   28.6890   24.6000 C   0  0  0  0  0  0  0  0  0  0  0  0
    9.9810   28.3310   25.1140 N   0  0  0  0  0  0  0  0  0  0  0  0
   10.1430   29.1410   26.2170 C   0  0  0  0  0  0  0  0  0  0  0  0
   11.1650   29.2580   27.1730 C   0  0  0  0  0  0  0  0  0  0  0  0
   11.0450   30.1930   28.1390 N   0  0  0  0  0  0  0  0  0  0  0  0
    9.9330   30.9600   28.1600 C   0  0  0  0  0  0  0  0  0  0  0  0
    8.8850   30.9310   27.3060 N   0  0  0  0  0  0  0  0  0  0  0  0
    9.0640   29.9970   26.3610 C   0  0  0  0  0  0  0  0  0  0  0  0
    8.2260   29.6830   25.3270 N   0  0  0  0  0  0  0  0  0  0  0  0
    6.9560   30.3240   25.0790 C   0  0  1  0  0  0  0  0  0  0  0  0
    7.0130   31.5610   24.1650 C   0  0  2  0  0  0  0  0  0  0  0  0
    5.6350   31.5120   23.5210 C   0  0  1  0  0  0  0  0  0  0  0  0
    5.4630   30.0080   23.3100 C   0  0  1  0  0  0  0  0  0  0  0  0
    6.0170   29.3810   24.4940 O   0  0  0  0  0  0  0  0  0  0  0  0
    4.0240   29.5420   23.1190 C   0  0  0  0  0  0  0  0  0  0  0  0
    3.3750   29.4640   24.3880 O   0  0  0  0  0  0  0  0  0  0  0  0
    4.6580   32.0720   24.3980 O   0  0  0  0  0  0  0  0  0  0  0  0
    8.0070   31.4370   23.1410 O   0  0  0  0  0  0  0  0  0  0  0  0
    9.8620   31.8720   29.1430 F   0  0  0  0  0  0  0  0  0  0  0  0
   12.3040   28.4640   27.1620 N   0  0  0  0  0  0  0  0  0  0  0  0
    8.3840   28.2419   23.6949 H   0  0  0  0  0  0  0  0  0  0  0  0
    6.6306   30.6714   26.0707 H   0  0  0  0  0  0  0  0  0  0  0  0
    7.2617   32.4839   24.7094 H   0  0  0  0  0  0  0  0  0  0  0  0
    5.5230   32.0899   22.5918 H   0  0  0  0  0  0  0  0  0  0  0  0
    5.9699   29.7305   22.3740 H   0  0  0  0  0  0  0  0  0  0  0  0
    3.4892   30.2578   22.4774 H   0  0  0  0  0  0  0  0  0  0  0  0
    4.0206   28.5495   22.6446 H   0  0  0  0  0  0  0  0  0  0  0  0
    4.0488   29.5450   25.1088 H   0  0  0  0  0  0  0  0  0  0  0  0
    4.9297   31.9163   25.3372 H   0  0  0  0  0  0  0  0  0  0  0  0
    8.8981   31.3258   23.5578 H   0  0  0  0  0  0  0  0  0  0  0  0
   13.0257   28.5887   27.8862 H   0  0  0  0  0  0  0  0  0  0  0  0
   12.4272   27.7503   26.4297 H   0  0  0  0  0  0  0  0  0  0  0  0
  1  2  2  0
  2  3  1  0
  3  4  2  0
  4  5  1  0
  5  6  2  0
  6  7  1  0
  7  8  2  0
  8  9  1  0
  9 10  1  0
 10 11  1  0
 11 12  1  0
 12 13  1  0
 13 14  1  0
 13 15  1  0
 15 16  1  0
 12 17  1  0
 11 18  1  0
  6 19  1  0
  4 20  1  0
  9  1  1  0
  8  3  1  0
 14 10  1  0
  1 21  1  0
 10 22  1  1
 11 23  1  1
 12 24  1  6
 13 25  1  1
 15 26  1  0
 15 27  1  0
 16 28  1  0
 17 29  1  0
 18 30  1  0
 20 31  1  0
 20 32  1  0
M  END
