
     RDKit          3D

 51 52  0  0  0  0  0  0  0  0999 V2000
   62.9740  136.9630   90.5530 C   0  0  0  0  0  0  0  0  0  0  0  0
   62.2520  136.7600   91.7980 N   0  0  0  0  0  0  0  0  0  0  0  0
   62.8540  135.8360   92.7450 C   0  0  0  0  0  0  0  0  0  0  0  0
   61.0160  137.3250   92.1020 C   0  0  0  0  0  0  0  0  0  0  0  0
   60.5080  137.2210   93.2200 O   0  0  0  0  0  0  0  0  0  0  0  0
   60.3080  138.1460   91.0120 C   0  0  0  0  0  0  0  0  0  0  0  0
   60.0530  139.5150   91.3260 O   0  0  0  0  0  0  0  0  0  0  0  0
   58.7600  139.9160   91.1320 C   0  0  0  0  0  0  0  0  0  0  0  0
   58.4090  141.0730   90.9670 O   0  0  0  0  0  0  0  0  0  0  0  0
   57.8630  138.6970   91.1480 C   0  0  0  0  0  0  0  0  0  0  0  0
   56.8940  138.6540   92.3040 C   0  0  0  0  0  0  0  0  0  0  0  0
   57.1260  137.8020   93.3960 C   0  0  0  0  0  0  0  0  0  0  0  0
   56.2290  137.7610   94.4630 C   0  0  0  0  0  0  0  0  0  0  0  0
   55.1030  138.5790   94.4410 C   0  0  0  0  0  0  0  0  0  0  0  0
   54.8360  139.4080   93.3540 C   0  0  0  0  0  0  0  0  0  0  0  0
   55.7350  139.4480   92.2880 C   0  0  0  0  0  0  0  0  0  0  0  0
   54.1950  138.4780   95.4970 O   0  0  0  0  0  0  0  0  0  0  0  0
   53.2930  137.4380   95.3780 C   0  0  0  0  0  0  0  0  0  0  0  0
   53.2790  136.3930   96.0120 O   0  0  0  0  0  0  0  0  0  0  0  0
   52.2930  137.7580   94.3210 C   0  0  0  0  0  0  0  0  0  0  0  0
   51.3940  138.8030   94.5600 C   0  0  0  0  0  0  0  0  0  0  0  0
   50.4340  139.1430   93.5980 C   0  0  0  0  0  0  0  0  0  0  0  0
   50.3340  138.4420   92.3850 C   0  0  0  0  0  0  0  0  0  0  0  0
   51.2580  137.4180   92.1510 C   0  0  0  0  0  0  0  0  0  0  0  0
   52.2220  137.0690   93.1080 C   0  0  0  0  0  0  0  0  0  0  0  0
   49.3780  138.8650   91.4410 N   0  0  0  0  0  0  0  0  0  0  0  0
   49.5800  139.4680   90.2370 C   0  0  0  0  0  0  0  0  0  0  0  0
   50.6960  139.7580   89.6730 N   0  0  0  0  0  0  0  0  0  0  0  0
   48.4010  139.7550   89.6310 N   0  0  0  0  0  0  0  0  0  0  0  0
   64.0113  137.2547   90.7741 H   0  0  0  0  0  0  0  0  0  0  0  0
   62.9716  136.0294   89.9713 H   0  0  0  0  0  0  0  0  0  0  0  0
   62.4854  137.7586   89.9713 H   0  0  0  0  0  0  0  0  0  0  0  0
   62.6370  136.1690   93.7707 H   0  0  0  0  0  0  0  0  0  0  0  0
   62.4377  134.8296   92.5905 H   0  0  0  0  0  0  0  0  0  0  0  0
   63.9428  135.8102   92.5905 H   0  0  0  0  0  0  0  0  0  0  0  0
   60.9360  138.1191   90.1093 H   0  0  0  0  0  0  0  0  0  0  0  0
   59.3189  137.6814   90.8864 H   0  0  0  0  0  0  0  0  0  0  0  0
   57.2842  138.6829   90.2127 H   0  0  0  0  0  0  0  0  0  0  0  0
   58.5217  137.8227   91.2565 H   0  0  0  0  0  0  0  0  0  0  0  0
   58.0211  137.1628   93.4098 H   0  0  0  0  0  0  0  0  0  0  0  0
   56.4097  137.0883   95.3144 H   0  0  0  0  0  0  0  0  0  0  0  0
   53.9255  140.0249   93.3363 H   0  0  0  0  0  0  0  0  0  0  0  0
   55.5351  140.1056   91.4292 H   0  0  0  0  0  0  0  0  0  0  0  0
   51.4411  139.3601   95.5073 H   0  0  0  0  0  0  0  0  0  0  0  0
   49.7441  139.9764   93.7968 H   0  0  0  0  0  0  0  0  0  0  0  0
   51.2278  136.8745   91.1951 H   0  0  0  0  0  0  0  0  0  0  0  0
   52.9255  136.2488   92.9024 H   0  0  0  0  0  0  0  0  0  0  0  0
   50.7031  140.2184   88.7516 H   0  0  0  0  0  0  0  0  0  0  0  0
   51.5844  139.5303   90.1418 H   0  0  0  0  0  0  0  0  0  0  0  0
   48.3942  140.2146   88.7092 H   0  0  0  0  0  0  0  0  0  0  0  0
   47.5125  139.5134   90.0926 H   0  0  0  0  0  0  0  0  0  0  0  0
  1  2  1  0
  2  3  1  0
  2  4  1  0
  4  5  2  0
  4  6  1  0
  6  7  1  0
  7  8  1  0
  8  9  2  0
  8 10  1  0
 10 11  1  0
 11 12  2  0
 12 13  1  0
 13 14  2  0
 14 15  1  0
 15 16  2  0
 14 17  1  0
 17 18  1  0
 18 19  2  0
 18 20  1  0
 20 21  2  0
 21 22  1  0
 22 23  2  0
 23 24  1  0
 24 25  2  0
 23 26  1  0
 26 27  2  3
 27 28  1  0
 27 29  1  0
 16 11  1  0
 25 20  1  0
  1 30  1  0
  1 31  1  0
  1 32  1  0
  3 33  1  0
  3 34  1  0
  3 35  1  0
  6 36  1  0
  6 37  1  0
 10 38  1  0
 10 39  1  0
 12 40  1  0
 13 41  1  0
 15 42  1  0
 16 43  1  0
 21 44  1  0
 22 45  1  0
 24 46  1  0
 25 47  1  0
 28 48  1  0
 28 49  1  0
 29 50  1  0
 29 51  1  0
M  END
