
     RDKit          3D

 43 46  0  0  0  0  0  0  0  0999 V2000
    3.2840   28.4680   21.4130 C   0  0  0  0  0  0  0  0  0  0  0  0
    2.9160   29.6440   22.2940 C   0  0  0  0  0  0  0  0  0  0  0  0
    3.7150   31.1440   21.7410 S   0  0  0  0  0  0  0  0  0  0  0  0
    2.8640   32.2760   22.0410 O   0  0  0  0  0  0  0  0  0  0  0  0
    4.2560   30.9320   20.4160 O   0  0  0  0  0  0  0  0  0  0  0  0
    5.0270   31.2210   22.8130 N   0  0  0  0  0  0  0  0  0  0  0  0
    5.6690   32.4900   23.2880 C   0  0  0  0  0  0  0  0  0  0  0  0
    7.0010   32.0970   22.6000 C   0  0  0  0  0  0  0  0  0  0  0  0
    6.3870   30.6800   22.4910 C   0  0  0  0  0  0  0  0  0  0  0  0
    7.2930   32.8540   21.3100 C   0  0  0  0  0  0  0  0  0  0  0  0
    6.2530   33.8490   21.0200 C   0  0  0  0  0  0  0  0  0  0  0  0
    5.4060   34.6070   20.7890 N   0  0  0  0  0  0  0  0  0  0  0  0
    8.1250   32.1930   23.5560 N   0  0  0  0  0  0  0  0  0  0  0  0
    8.3820   31.3180   24.5700 C   0  0  0  0  0  0  0  0  0  0  0  0
    9.5460   31.7500   25.1790 C   0  0  0  0  0  0  0  0  0  0  0  0
    9.9350   32.8630   24.4040 C   0  0  0  0  0  0  0  0  0  0  0  0
    9.0760   33.1370   23.4170 N   0  0  0  0  0  0  0  0  0  0  0  0
   10.1600   31.0860   26.3070 C   0  0  0  0  0  0  0  0  0  0  0  0
   10.5260   31.7570   27.4820 C   0  0  0  0  0  0  0  0  0  0  0  0
   10.4560   33.0730   28.0250 C   0  0  0  0  0  0  0  0  0  0  0  0
   11.0190   33.0450   29.2850 C   0  0  0  0  0  0  0  0  0  0  0  0
   11.4210   31.7590   29.5320 N   0  0  0  0  0  0  0  0  0  0  0  0
   11.1190   30.9680   28.4590 C   0  0  0  0  0  0  0  0  0  0  0  0
   11.3700   29.6520   28.3990 N   0  0  0  0  0  0  0  0  0  0  0  0
   10.9610   29.1200   27.2370 C   0  0  0  0  0  0  0  0  0  0  0  0
   10.3720   29.7500   26.2050 N   0  0  0  0  0  0  0  0  0  0  0  0
    3.5532   27.6077   22.0434 H   0  0  0  0  0  0  0  0  0  0  0  0
    2.4259   28.2029   20.7779 H   0  0  0  0  0  0  0  0  0  0  0  0
    4.1402   28.7394   20.7779 H   0  0  0  0  0  0  0  0  0  0  0  0
    1.8257   29.7868   22.2643 H   0  0  0  0  0  0  0  0  0  0  0  0
    3.2523   29.4288   23.3190 H   0  0  0  0  0  0  0  0  0  0  0  0
    5.2088   33.4024   22.8809 H   0  0  0  0  0  0  0  0  0  0  0  0
    5.6568   32.7459   24.3578 H   0  0  0  0  0  0  0  0  0  0  0  0
    6.4643   30.2366   21.4873 H   0  0  0  0  0  0  0  0  0  0  0  0
    6.8042   29.8533   23.0848 H   0  0  0  0  0  0  0  0  0  0  0  0
    8.2608   33.3675   21.4087 H   0  0  0  0  0  0  0  0  0  0  0  0
    7.3156   32.1289   20.4831 H   0  0  0  0  0  0  0  0  0  0  0  0
    7.7808   30.4401   24.8490 H   0  0  0  0  0  0  0  0  0  0  0  0
   10.8495   33.4445   24.5923 H   0  0  0  0  0  0  0  0  0  0  0  0
   10.0284   33.9559   27.5273 H   0  0  0  0  0  0  0  0  0  0  0  0
   11.1256   33.9010   29.9676 H   0  0  0  0  0  0  0  0  0  0  0  0
   11.8811   31.4369   30.3954 H   0  0  0  0  0  0  0  0  0  0  0  0
   11.1273   28.0396   27.1138 H   0  0  0  0  0  0  0  0  0  0  0  0
  1  2  1  0
  2  3  1  0
  3  4  2  0
  3  5  2  0
  3  6  1  0
  6  7  1  0
  7  8  1  0
  8  9  1  0
  8 10  1  0
 10 11  1  0
 11 12  3  0
  8 13  1  0
 13 14  1  0
 14 15  2  0
 15 16  1  0
 16 17  2  0
 15 18  1  0
 18 19  2  0
 19 20  1  0
 20 21  2  0
 21 22  1  0
 22 23  1  0
 23 24  2  0
 24 25  1  0
 25 26  2  0
  9  6  1  0
 17 13  1  0
 26 18  1  0
 23 19  1  0
  1 27  1  0
  1 28  1  0
  1 29  1  0
  2 30  1  0
  2 31  1  0
  7 32  1  0
  7 33  1  0
  9 34  1  0
  9 35  1  0
 10 36  1  0
 10 37  1  0
 14 38  1  0
 16 39  1  0
 20 40  1  0
 21 41  1  0
 22 42  1  0
 25 43  1  0
M  END
