
     RDKit          3D

 54 57  0  0  0  0  0  0  0  0999 V2000
    3.2120   32.4360   22.5370 C   0  0  0  0  0  0  0  0  0  0  0  0
    4.5310   31.8120   22.5960 N   0  0  0  0  0  0  0  0  0  0  0  0
    4.7320   31.0550   23.8380 C   0  0  0  0  0  0  0  0  0  0  0  0
    4.6170   29.5420   23.6620 C   0  0  0  0  0  0  0  0  0  0  0  0
    5.6260   29.0090   22.6330 C   0  0  0  0  0  0  0  0  0  0  0  0
    5.9540   30.0650   21.5610 C   0  0  0  0  0  0  0  0  0  0  0  0
    4.7930   31.0370   21.3740 C   0  0  0  0  0  0  0  0  0  0  0  0
    6.9090   28.4980   23.3080 C   0  0  0  0  0  0  0  0  0  0  0  0
    7.9320   29.4780   23.1410 O   0  0  0  0  0  0  0  0  0  0  0  0
    8.5670   29.9470   24.2630 C   0  0  0  0  0  0  0  0  0  0  0  0
    8.5170   31.3340   24.4660 C   0  0  0  0  0  0  0  0  0  0  0  0
    9.1390   31.8780   25.5910 C   0  0  0  0  0  0  0  0  0  0  0  0
    9.8200   31.0520   26.5230 C   0  0  0  0  0  0  0  0  0  0  0  0
    9.8810   29.6710   26.2990 C   0  0  0  0  0  0  0  0  0  0  0  0
    9.2540   29.1420   25.1780 C   0  0  0  0  0  0  0  0  0  0  0  0
   10.5230   28.8340   27.1180 N   0  0  0  0  0  0  0  0  0  0  0  0
   11.1240   29.3770   28.1830 C   0  0  0  0  0  0  0  0  0  0  0  0
   11.1330   30.6710   28.5080 N   0  0  0  0  0  0  0  0  0  0  0  0
   10.4710   31.5070   27.6880 C   0  0  0  0  0  0  0  0  0  0  0  0
   10.4180   32.8900   28.0080 N   0  0  0  0  0  0  0  0  0  0  0  0
   11.1600   33.5910   28.9870 C   0  0  0  0  0  0  0  0  0  0  0  0
   11.9420   34.6900   28.5940 C   0  0  0  0  0  0  0  0  0  0  0  0
   12.7440   35.3890   29.4910 C   0  0  0  0  0  0  0  0  0  0  0  0
   12.7900   34.9730   30.8150 C   0  0  0  0  0  0  0  0  0  0  0  0
   12.0500   33.8680   31.2350 C   0  0  0  0  0  0  0  0  0  0  0  0
   11.2480   33.1750   30.3200 C   0  0  0  0  0  0  0  0  0  0  0  0
   13.8720   35.9030   32.0550 Br  0  0  0  0  0  0  0  0  0  0  0  0
   11.9090   35.0860   27.3110 F   0  0  0  0  0  0  0  0  0  0  0  0
    7.8370   32.0600   23.5220 O   0  0  0  0  0  0  0  0  0  0  0  0
    8.3760   33.3180   23.1350 C   0  0  0  0  0  0  0  0  0  0  0  0
    2.8430   32.6106   23.5584 H   0  0  0  0  0  0  0  0  0  0  0  0
    3.2838   33.3956   22.0041 H   0  0  0  0  0  0  0  0  0  0  0  0
    2.5157   31.7718   22.0041 H   0  0  0  0  0  0  0  0  0  0  0  0
    5.7357   31.2840   24.2254 H   0  0  0  0  0  0  0  0  0  0  0  0
    3.9342   31.3589   24.5317 H   0  0  0  0  0  0  0  0  0  0  0  0
    4.8054   29.0555   24.6304 H   0  0  0  0  0  0  0  0  0  0  0  0
    3.6043   29.3162   23.2966 H   0  0  0  0  0  0  0  0  0  0  0  0
    5.1491   28.1551   22.1296 H   0  0  0  0  0  0  0  0  0  0  0  0
    6.8468   30.6273   21.8720 H   0  0  0  0  0  0  0  0  0  0  0  0
    6.1350   29.5492   20.6064 H   0  0  0  0  0  0  0  0  0  0  0  0
    5.0375   31.7316   20.5568 H   0  0  0  0  0  0  0  0  0  0  0  0
    3.8912   30.4530   21.1380 H   0  0  0  0  0  0  0  0  0  0  0  0
    6.7239   28.3343   24.3799 H   0  0  0  0  0  0  0  0  0  0  0  0
    7.2210   27.5472   22.8512 H   0  0  0  0  0  0  0  0  0  0  0  0
    9.1008   32.9646   25.7580 H   0  0  0  0  0  0  0  0  0  0  0  0
    9.2990   28.0567   25.0044 H   0  0  0  0  0  0  0  0  0  0  0  0
   11.6618   28.6914   28.8544 H   0  0  0  0  0  0  0  0  0  0  0  0
    9.7551   33.4539   27.4571 H   0  0  0  0  0  0  0  0  0  0  0  0
   13.3318   36.2567   29.1568 H   0  0  0  0  0  0  0  0  0  0  0  0
   12.0963   33.5411   32.2843 H   0  0  0  0  0  0  0  0  0  0  0  0
   10.6806   32.2934   30.6530 H   0  0  0  0  0  0  0  0  0  0  0  0
    8.6261   33.9017   24.0332 H   0  0  0  0  0  0  0  0  0  0  0  0
    9.2849   33.1589   22.5362 H   0  0  0  0  0  0  0  0  0  0  0  0
    7.6338   33.8663   22.5362 H   0  0  0  0  0  0  0  0  0  0  0  0
  1  2  1  0
  2  3  1  0
  3  4  1  0
  4  5  1  0
  5  6  1  0
  6  7  1  0
  5  8  1  0
  8  9  1  0
  9 10  1  0
 10 11  2  0
 11 12  1  0
 12 13  2  0
 13 14  1  0
 14 15  2  0
 14 16  1  0
 16 17  2  0
 17 18  1  0
 18 19  2  0
 19 20  1  0
 20 21  1  0
 21 22  2  0
 22 23  1  0
 23 24  2  0
 24 25  1  0
 25 26  2  0
 24 27  1  0
 22 28  1  0
 11 29  1  0
 29 30  1  0
  7  2  1  0
 15 10  1  0
 19 13  1  0
 26 21  1  0
  1 31  1  0
  1 32  1  0
  1 33  1  0
  3 34  1  0
  3 35  1  0
  4 36  1  0
  4 37  1  0
  5 38  1  0
  6 39  1  0
  6 40  1  0
  7 41  1  0
  7 42  1  0
  8 43  1  0
  8 44  1  0
 12 45  1  0
 15 46  1  0
 17 47  1  0
 20 48  1  0
 23 49  1  0
 25 50  1  0
 26 51  1  0
 30 52  1  0
 30 53  1  0
 30 54  1  0
M  END
