
     RDKit          3D

 41 44  0  0  0  0  0  0  0  0999 V2000
   54.3340  137.6070   96.0610 C   0  0  0  0  0  0  0  0  0  0  0  0
   53.9730  139.0570   96.3800 C   0  0  0  0  0  0  0  0  0  0  0  0
   54.0050  139.8050   95.0510 C   0  0  0  0  0  0  0  0  0  0  0  0
   54.9270  138.9690   94.1610 C   0  0  0  0  0  0  0  0  0  0  0  0
   54.5210  137.5430   94.5500 C   0  0  0  0  0  0  0  0  0  0  0  0
   54.7760  139.2650   92.6530 C   0  0  1  0  0  0  0  0  0  0  0  0
   54.3610  140.7040   92.3070 C   0  0  0  0  0  0  0  0  0  0  0  0
   53.1680  140.8060   91.4530 C   0  0  0  0  0  0  0  0  0  0  0  0
   52.2690  140.8440   90.7200 N   0  0  0  0  0  0  0  0  0  0  0  0
   55.9640  138.8650   91.8970 N   0  0  0  0  0  0  0  0  0  0  0  0
   57.2410  138.7630   92.3780 C   0  0  0  0  0  0  0  0  0  0  0  0
   58.0250  138.3570   91.3180 C   0  0  0  0  0  0  0  0  0  0  0  0
   57.1180  138.2750   90.2380 C   0  0  0  0  0  0  0  0  0  0  0  0
   55.8610  138.5540   90.5970 N   0  0  0  0  0  0  0  0  0  0  0  0
   59.4550  138.1590   91.3180 C   0  0  0  0  0  0  0  0  0  0  0  0
   60.1380  137.4560   92.3180 C   0  0  0  0  0  0  0  0  0  0  0  0
   59.8350  136.7350   93.5100 C   0  0  0  0  0  0  0  0  0  0  0  0
   61.0200  136.2640   94.0370 C   0  0  0  0  0  0  0  0  0  0  0  0
   62.0330  136.6620   93.2030 N   0  0  0  0  0  0  0  0  0  0  0  0
   61.5140  137.3710   92.1550 C   0  0  0  0  0  0  0  0  0  0  0  0
   62.2460  137.8800   91.1530 N   0  0  0  0  0  0  0  0  0  0  0  0
   61.4790  138.5110   90.2500 C   0  0  0  0  0  0  0  0  0  0  0  0
   60.1430  138.6730   90.2680 N   0  0  0  0  0  0  0  0  0  0  0  0
   55.2650  137.3233   96.5736 H   0  0  0  0  0  0  0  0  0  0  0  0
   53.5506  136.9130   96.3996 H   0  0  0  0  0  0  0  0  0  0  0  0
   52.9681  139.1111   96.8240 H   0  0  0  0  0  0  0  0  0  0  0  0
   54.6756  139.4953   97.1040 H   0  0  0  0  0  0  0  0  0  0  0  0
   52.9967  139.8673   94.6158 H   0  0  0  0  0  0  0  0  0  0  0  0
   54.3590  140.8405   95.1630 H   0  0  0  0  0  0  0  0  0  0  0  0
   55.9949  139.1817   94.3171 H   0  0  0  0  0  0  0  0  0  0  0  0
   53.5831  137.2549   94.0526 H   0  0  0  0  0  0  0  0  0  0  0  0
   55.2692  136.7949   94.2492 H   0  0  0  0  0  0  0  0  0  0  0  0
   53.9269  138.6392   92.3409 H   0  0  0  0  0  0  0  0  0  0  0  0
   54.1575  141.2383   93.2468 H   0  0  0  0  0  0  0  0  0  0  0  0
   55.1932  141.1408   91.7354 H   0  0  0  0  0  0  0  0  0  0  0  0
   57.5760  138.9648   93.4061 H   0  0  0  0  0  0  0  0  0  0  0  0
   57.4142  138.0101   89.2123 H   0  0  0  0  0  0  0  0  0  0  0  0
   58.8322  136.5811   93.9351 H   0  0  0  0  0  0  0  0  0  0  0  0
   61.1319  135.6755   94.9596 H   0  0  0  0  0  0  0  0  0  0  0  0
   63.0327  136.4580   93.3443 H   0  0  0  0  0  0  0  0  0  0  0  0
   62.0069  138.9493   89.3902 H   0  0  0  0  0  0  0  0  0  0  0  0
  1  2  1  0
  2  3  1  0
  3  4  1  0
  4  5  1  0
  4  6  1  0
  6  7  1  0
  7  8  1  0
  8  9  3  0
  6 10  1  0
 10 11  1  0
 11 12  2  0
 12 13  1  0
 13 14  2  0
 12 15  1  0
 15 16  2  0
 16 17  1  0
 17 18  2  0
 18 19  1  0
 19 20  1  0
 20 21  2  0
 21 22  1  0
 22 23  2  0
  5  1  1  0
 14 10  1  0
 23 15  1  0
 20 16  1  0
  1 24  1  0
  1 25  1  0
  2 26  1  0
  2 27  1  0
  3 28  1  0
  3 29  1  0
  4 30  1  0
  5 31  1  0
  5 32  1  0
  6 33  1  6
  7 34  1  0
  7 35  1  0
 11 36  1  0
 13 37  1  0
 17 38  1  0
 18 39  1  0
 19 40  1  0
 22 41  1  0
M  END
