
     RDKit          3D

 76 79  0  0  0  0  0  0  0  0999 V2000
   53.3770  140.2480   98.1870 C   0  0  0  0  0  0  0  0  0  0  0  0
   53.0790  141.1070   96.9550 C   0  0  0  0  0  0  0  0  0  0  0  0
   52.2780  142.3620   97.2880 C   0  0  0  0  0  0  0  0  0  0  0  0
   52.5040  140.2950   95.8040 C   0  0  0  0  0  0  0  0  0  0  0  0
   51.1550  139.9930   95.5830 C   0  0  0  0  0  0  0  0  0  0  0  0
   51.0730  139.3240   94.3200 C   0  0  0  0  0  0  0  0  0  0  0  0
   52.3580  139.2170   93.8040 C   0  0  0  0  0  0  0  0  0  0  0  0
   53.2270  139.7270   94.7620 N   0  0  0  0  0  0  0  0  0  0  0  0
   54.6810  139.6090   94.6700 C   0  0  0  0  0  0  0  0  0  0  0  0
   55.1550  138.1570   94.7140 C   0  0  0  0  0  0  0  0  0  0  0  0
   56.2590  137.8530   93.6940 C   0  0  2  0  0  0  0  0  0  0  0  0
   57.6790  137.6400   94.2460 C   0  0  0  0  0  0  0  0  0  0  0  0
   58.6940  137.0480   93.2560 C   0  0  2  0  0  0  0  0  0  0  0  0
   59.8780  136.3540   93.9360 C   0  0  0  0  0  0  0  0  0  0  0  0
   61.1900  136.6430   93.2640 C   0  0  0  0  0  0  0  0  0  0  0  0
   61.8780  137.6410   93.4100 O   0  0  0  0  0  0  0  0  0  0  0  0
   61.5540  135.6700   92.4090 O   0  0  0  0  0  0  0  0  0  0  0  0
   59.1530  138.0300   92.3350 O   0  0  0  0  0  0  0  0  0  0  0  0
   56.2800  138.8780   92.7010 O   0  0  0  0  0  0  0  0  0  0  0  0
   52.7940  138.6140   92.5380 C   0  0  0  0  0  0  0  0  0  0  0  0
   53.5200  139.3700   91.6080 C   0  0  0  0  0  0  0  0  0  0  0  0
   53.9570  138.7880   90.4160 C   0  0  0  0  0  0  0  0  0  0  0  0
   53.6710  137.4530   90.1610 C   0  0  0  0  0  0  0  0  0  0  0  0
   52.9570  136.6860   91.0750 C   0  0  0  0  0  0  0  0  0  0  0  0
   52.5210  137.2650   92.2670 C   0  0  0  0  0  0  0  0  0  0  0  0
   54.0870  136.8950   89.0160 F   0  0  0  0  0  0  0  0  0  0  0  0
   49.8950  138.7900   93.6480 C   0  0  0  0  0  0  0  0  0  0  0  0
   49.5850  137.4260   93.7260 C   0  0  0  0  0  0  0  0  0  0  0  0
   48.4770  136.9160   93.0470 C   0  0  0  0  0  0  0  0  0  0  0  0
   47.6760  137.7650   92.2830 C   0  0  0  0  0  0  0  0  0  0  0  0
   47.9810  139.1230   92.1990 C   0  0  0  0  0  0  0  0  0  0  0  0
   49.0870  139.6350   92.8790 C   0  0  0  0  0  0  0  0  0  0  0  0
   50.0500  140.3260   96.5030 C   0  0  0  0  0  0  0  0  0  0  0  0
   49.1120  141.0250   96.1370 O   0  0  0  0  0  0  0  0  0  0  0  0
   50.1990  139.7660   97.7570 N   0  0  0  0  0  0  0  0  0  0  0  0
   49.3600  139.9050   98.8790 C   0  0  0  0  0  0  0  0  0  0  0  0
   48.4340  138.9450   99.2900 C   0  0  0  0  0  0  0  0  0  0  0  0
   47.6380  139.1660  100.4180 C   0  0  0  0  0  0  0  0  0  0  0  0
   47.7590  140.3500  101.1420 C   0  0  0  0  0  0  0  0  0  0  0  0
   48.6770  141.3150  100.7400 C   0  0  0  0  0  0  0  0  0  0  0  0
   49.4740  141.0930   99.6130 C   0  0  0  0  0  0  0  0  0  0  0  0
   53.1749  140.8307   99.0979 H   0  0  0  0  0  0  0  0  0  0  0  0
   52.7366  139.3537   98.1741 H   0  0  0  0  0  0  0  0  0  0  0  0
   54.4336  139.9425   98.1741 H   0  0  0  0  0  0  0  0  0  0  0  0
   54.0479  141.4792   96.5907 H   0  0  0  0  0  0  0  0  0  0  0  0
   52.2073  142.4728   98.3801 H   0  0  0  0  0  0  0  0  0  0  0  0
   52.7817  143.2422   96.8620 H   0  0  0  0  0  0  0  0  0  0  0  0
   51.2675  142.2758   96.8620 H   0  0  0  0  0  0  0  0  0  0  0  0
   55.0121  140.0595   93.7226 H   0  0  0  0  0  0  0  0  0  0  0  0
   55.1137  140.1279   95.5380 H   0  0  0  0  0  0  0  0  0  0  0  0
   55.5417  137.9454   95.7218 H   0  0  0  0  0  0  0  0  0  0  0  0
   54.2923  137.5227   94.4621 H   0  0  0  0  0  0  0  0  0  0  0  0
   55.9842  136.8717   93.2799 H   0  0  0  0  0  0  0  0  0  0  0  0
   58.0619  138.6154   94.5806 H   0  0  0  0  0  0  0  0  0  0  0  0
   57.5800  136.9002   95.0541 H   0  0  0  0  0  0  0  0  0  0  0  0
   58.1490  136.2682   92.7039 H   0  0  0  0  0  0  0  0  0  0  0  0
   59.9347  136.6984   94.9792 H   0  0  0  0  0  0  0  0  0  0  0  0
   59.7061  135.2694   93.8715 H   0  0  0  0  0  0  0  0  0  0  0  0
   62.4023  135.7463   91.9043 H   0  0  0  0  0  0  0  0  0  0  0  0
   59.5154  138.8053   92.8326 H   0  0  0  0  0  0  0  0  0  0  0  0
   56.2982  139.7642   93.1419 H   0  0  0  0  0  0  0  0  0  0  0  0
   53.7466  140.4258   91.8176 H   0  0  0  0  0  0  0  0  0  0  0  0
   54.5236  139.3827   89.6844 H   0  0  0  0  0  0  0  0  0  0  0  0
   52.7374  135.6299   90.8596 H   0  0  0  0  0  0  0  0  0  0  0  0
   51.9613  136.6617   92.9968 H   0  0  0  0  0  0  0  0  0  0  0  0
   50.2174  136.7540   94.3248 H   0  0  0  0  0  0  0  0  0  0  0  0
   48.2356  135.8449   93.1144 H   0  0  0  0  0  0  0  0  0  0  0  0
   46.8037  137.3631   91.7468 H   0  0  0  0  0  0  0  0  0  0  0  0
   47.3491  139.7916   91.5960 H   0  0  0  0  0  0  0  0  0  0  0  0
   49.3245  140.7069   92.8102 H   0  0  0  0  0  0  0  0  0  0  0  0
   51.0296  139.1711   97.8878 H   0  0  0  0  0  0  0  0  0  0  0  0
   48.3298  138.0083   98.7227 H   0  0  0  0  0  0  0  0  0  0  0  0
   46.9132  138.4018  100.7351 H   0  0  0  0  0  0  0  0  0  0  0  0
   47.1308  140.5213  102.0286 H   0  0  0  0  0  0  0  0  0  0  0  0
   48.7756  142.2517  101.3083 H   0  0  0  0  0  0  0  0  0  0  0  0
   50.1983  141.8592   99.2992 H   0  0  0  0  0  0  0  0  0  0  0  0
  1  2  1  0
  2  3  1  0
  2  4  1  0
  4  5  2  0
  5  6  1  0
  6  7  2  0
  7  8  1  0
  8  9  1  0
  9 10  1  0
 10 11  1  0
 11 12  1  0
 12 13  1  0
 13 14  1  0
 14 15  1  0
 15 16  2  0
 15 17  1  0
 13 18  1  0
 11 19  1  0
  7 20  1  0
 20 21  2  0
 21 22  1  0
 22 23  2  0
 23 24  1  0
 24 25  2  0
 23 26  1  0
  6 27  1  0
 27 28  2  0
 28 29  1  0
 29 30  2  0
 30 31  1  0
 31 32  2  0
  5 33  1  0
 33 34  2  0
 33 35  1  0
 35 36  1  0
 36 37  2  0
 37 38  1  0
 38 39  2  0
 39 40  1  0
 40 41  2  0
  8  4  1  0
 25 20  1  0
 32 27  1  0
 41 36  1  0
  1 42  1  0
  1 43  1  0
  1 44  1  0
  2 45  1  0
  3 46  1  0
  3 47  1  0
  3 48  1  0
  9 49  1  0
  9 50  1  0
 10 51  1  0
 10 52  1  0
 11 53  1  6
 12 54  1  0
 12 55  1  0
 13 56  1  6
 14 57  1  0
 14 58  1  0
 17 59  1  0
 18 60  1  0
 19 61  1  0
 21 62  1  0
 22 63  1  0
 24 64  1  0
 25 65  1  0
 28 66  1  0
 29 67  1  0
 30 68  1  0
 31 69  1  0
 32 70  1  0
 35 71  1  0
 37 72  1  0
 38 73  1  0
 39 74  1  0
 40 75  1  0
 41 76  1  0
M  END
