
     RDKit          3D

 46 47  0  0  0  0  0  0  0  0999 V2000
    8.0660   26.4080   23.3870 C   0  0  0  0  0  0  0  0  0  0  0  0
    7.9240   27.7870   24.0200 C   0  0  0  0  0  0  0  0  0  0  0  0
    9.2760   28.3050   24.4950 C   0  0  0  0  0  0  0  0  0  0  0  0
    7.4020   28.6650   23.0050 O   0  0  0  0  0  0  0  0  0  0  0  0
    6.4270   29.5420   23.4030 C   0  0  0  0  0  0  0  0  0  0  0  0
    5.4570   29.2170   24.0790 O   0  0  0  0  0  0  0  0  0  0  0  0
    6.7280   30.9710   22.8800 C   0  0  0  0  0  0  0  0  0  0  0  0
    5.5510   31.3760   21.9840 C   0  0  0  0  0  0  0  0  0  0  0  0
    8.0790   30.9050   22.1560 C   0  0  0  0  0  0  0  0  0  0  0  0
    6.7910   31.7660   24.0760 O   0  0  0  0  0  0  0  0  0  0  0  0
    7.8380   31.8310   24.9370 C   0  0  0  0  0  0  0  0  0  0  0  0
    7.6170   31.1400   26.1350 C   0  0  0  0  0  0  0  0  0  0  0  0
    8.5870   31.1020   27.1390 C   0  0  0  0  0  0  0  0  0  0  0  0
    9.7930   31.7780   26.9610 C   0  0  0  0  0  0  0  0  0  0  0  0
   10.0330   32.4550   25.7610 C   0  0  0  0  0  0  0  0  0  0  0  0
    9.0540   32.4840   24.7570 C   0  0  0  0  0  0  0  0  0  0  0  0
   10.8110   31.7150   28.0400 C   0  0  0  0  0  0  0  0  0  0  0  0
   11.2120   30.6200   28.4240 O   0  0  0  0  0  0  0  0  0  0  0  0
   11.3570   32.9450   28.6660 C   0  0  0  0  0  0  0  0  0  0  0  0
   11.4090   33.1030   30.0580 C   0  0  0  0  0  0  0  0  0  0  0  0
   11.9450   34.2710   30.6070 C   0  0  0  0  0  0  0  0  0  0  0  0
   12.4380   35.2710   29.7690 C   0  0  0  0  0  0  0  0  0  0  0  0
   12.4080   35.1120   28.3850 C   0  0  0  0  0  0  0  0  0  0  0  0
   11.8720   33.9460   27.8320 C   0  0  0  0  0  0  0  0  0  0  0  0
   13.0950   36.7080   30.4510 Cl  0  0  0  0  0  0  0  0  0  0  0  0
    8.1443   25.6477   24.1781 H   0  0  0  0  0  0  0  0  0  0  0  0
    7.1847   26.1985   22.7630 H   0  0  0  0  0  0  0  0  0  0  0  0
    8.9715   26.3825   22.7630 H   0  0  0  0  0  0  0  0  0  0  0  0
    7.2567   27.7386   24.8931 H   0  0  0  0  0  0  0  0  0  0  0  0
    9.2994   28.3140   25.5947 H   0  0  0  0  0  0  0  0  0  0  0  0
   10.0736   27.6488   24.1166 H   0  0  0  0  0  0  0  0  0  0  0  0
    9.4309   29.3262   24.1166 H   0  0  0  0  0  0  0  0  0  0  0  0
    4.6967   31.6700   22.6115 H   0  0  0  0  0  0  0  0  0  0  0  0
    5.8483   32.2235   21.3489 H   0  0  0  0  0  0  0  0  0  0  0  0
    5.2638   30.5250   21.3489 H   0  0  0  0  0  0  0  0  0  0  0  0
    8.8907   30.8653   22.8973 H   0  0  0  0  0  0  0  0  0  0  0  0
    8.1136   30.0041   21.5258 H   0  0  0  0  0  0  0  0  0  0  0  0
    8.2013   31.7982   21.5258 H   0  0  0  0  0  0  0  0  0  0  0  0
    6.6613   30.6173   26.2880 H   0  0  0  0  0  0  0  0  0  0  0  0
    8.4001   30.5409   28.0665 H   0  0  0  0  0  0  0  0  0  0  0  0
   10.9938   32.9670   25.6039 H   0  0  0  0  0  0  0  0  0  0  0  0
    9.2486   33.0269   23.8203 H   0  0  0  0  0  0  0  0  0  0  0  0
   11.0285   32.3088   30.7171 H   0  0  0  0  0  0  0  0  0  0  0  0
   11.9780   34.4015   31.6987 H   0  0  0  0  0  0  0  0  0  0  0  0
   12.8049   35.9016   27.7300 H   0  0  0  0  0  0  0  0  0  0  0  0
   11.8544   33.8139   26.7401 H   0  0  0  0  0  0  0  0  0  0  0  0
  1  2  1  0
  2  3  1  0
  2  4  1  0
  4  5  1  0
  5  6  2  0
  5  7  1  0
  7  8  1  0
  7  9  1  0
  7 10  1  0
 10 11  1  0
 11 12  2  0
 12 13  1  0
 13 14  2  0
 14 15  1  0
 15 16  2  0
 14 17  1  0
 17 18  2  0
 17 19  1  0
 19 20  2  0
 20 21  1  0
 21 22  2  0
 22 23  1  0
 23 24  2  0
 22 25  1  0
 16 11  1  0
 24 19  1  0
  1 26  1  0
  1 27  1  0
  1 28  1  0
  2 29  1  0
  3 30  1  0
  3 31  1  0
  3 32  1  0
  8 33  1  0
  8 34  1  0
  8 35  1  0
  9 36  1  0
  9 37  1  0
  9 38  1  0
 12 39  1  0
 13 40  1  0
 15 41  1  0
 16 42  1  0
 20 43  1  0
 21 44  1  0
 23 45  1  0
 24 46  1  0
M  END
