
     RDKit          3D

 50 50  0  0  0  0  0  0  0  0999 V2000
   12.6000   35.1430   27.8980 C   0  0  0  0  0  0  0  0  0  0  0  0
   11.3520   34.5450   28.5260 C   0  0  0  0  0  0  0  0  0  0  0  0
   11.3120   33.0090   28.4790 C   0  0  0  0  0  0  0  0  0  0  0  0
   11.2000   32.3370   29.8590 C   0  0  0  0  0  0  0  0  0  0  0  0
   11.9900   33.0280   30.9640 C   0  0  0  0  0  0  0  0  0  0  0  0
   10.1740   32.5850   27.7140 O   0  0  0  0  0  0  0  0  0  0  0  0
   10.4880   31.7330   26.6000 C   0  0  2  0  0  0  0  0  0  0  0  0
   10.0220   32.4940   25.3910 C   0  0  0  0  0  0  0  0  0  0  0  0
    8.7350   32.4650   24.9990 C   0  0  0  0  0  0  0  0  0  0  0  0
    7.7580   31.6330   25.7830 C   0  0  0  0  0  0  0  0  0  0  0  0
    8.3550   30.2630   26.1470 C   0  0  2  0  0  0  0  0  0  0  0  0
    9.7950   30.3450   26.7690 C   0  0  1  0  0  0  0  0  0  0  0  0
   10.6090   29.2420   26.2290 N   0  0  0  0  0  0  0  0  0  0  0  0
   11.4900   28.5120   26.9800 C   0  0  0  0  0  0  0  0  0  0  0  0
   11.7700   28.7770   28.1440 O   0  0  0  0  0  0  0  0  0  0  0  0
   12.1010   27.3420   26.2570 C   0  0  0  0  0  0  0  0  0  0  0  0
    8.3220   29.3480   24.9630 N   0  0  0  0  0  0  0  0  0  0  0  0
    8.2160   33.2180   23.8280 C   0  0  0  0  0  0  0  0  0  0  0  0
    8.9430   33.7000   22.9720 O   0  0  0  0  0  0  0  0  0  0  0  0
    6.8630   33.3030   23.8570 O   0  0  0  0  0  0  0  0  0  0  0  0
    6.1870   32.9310   22.6480 C   0  0  0  0  0  0  0  0  0  0  0  0
    6.3860   31.4530   22.3730 C   0  0  0  0  0  0  0  0  0  0  0  0
   13.2876   35.4725   28.6909 H   0  0  0  0  0  0  0  0  0  0  0  0
   13.0960   34.3847   27.2743 H   0  0  0  0  0  0  0  0  0  0  0  0
   12.3198   36.0046   27.2743 H   0  0  0  0  0  0  0  0  0  0  0  0
   11.3070   34.8615   29.5785 H   0  0  0  0  0  0  0  0  0  0  0  0
   10.4931   34.9070   27.9419 H   0  0  0  0  0  0  0  0  0  0  0  0
   12.2688   32.7046   28.0297 H   0  0  0  0  0  0  0  0  0  0  0  0
   10.1394   32.3255   30.1505 H   0  0  0  0  0  0  0  0  0  0  0  0
   11.6275   31.3291   29.7520 H   0  0  0  0  0  0  0  0  0  0  0  0
   11.6141   32.6992   31.9441 H   0  0  0  0  0  0  0  0  0  0  0  0
   13.0544   32.7658   30.8727 H   0  0  0  0  0  0  0  0  0  0  0  0
   11.8718   34.1178   30.8727 H   0  0  0  0  0  0  0  0  0  0  0  0
   11.5599   31.5018   26.5131 H   0  0  0  0  0  0  0  0  0  0  0  0
   10.7476   33.0868   24.8147 H   0  0  0  0  0  0  0  0  0  0  0  0
    7.4951   32.1664   26.7084 H   0  0  0  0  0  0  0  0  0  0  0  0
    6.8656   31.4683   25.1613 H   0  0  0  0  0  0  0  0  0  0  0  0
    7.7182   29.8462   26.9412 H   0  0  0  0  0  0  0  0  0  0  0  0
    9.6952   30.2341   27.8588 H   0  0  0  0  0  0  0  0  0  0  0  0
   10.5095   29.0073   25.2310 H   0  0  0  0  0  0  0  0  0  0  0  0
   12.4805   26.6153   26.9904 H   0  0  0  0  0  0  0  0  0  0  0  0
   11.3384   26.8620   25.6261 H   0  0  0  0  0  0  0  0  0  0  0  0
   12.9307   27.6935   25.6261 H   0  0  0  0  0  0  0  0  0  0  0  0
    8.2867   28.3704   25.2855 H   0  0  0  0  0  0  0  0  0  0  0  0
    7.4878   29.5523   24.3944 H   0  0  0  0  0  0  0  0  0  0  0  0
    5.1122   33.1400   22.7531 H   0  0  0  0  0  0  0  0  0  0  0  0
    6.6012   33.5118   21.8107 H   0  0  0  0  0  0  0  0  0  0  0  0
    6.4592   30.9093   23.3264 H   0  0  0  0  0  0  0  0  0  0  0  0
    5.5315   31.0690   21.7966 H   0  0  0  0  0  0  0  0  0  0  0  0
    7.3117   31.3087   21.7966 H   0  0  0  0  0  0  0  0  0  0  0  0
  1  2  1  0
  2  3  1  0
  3  4  1  0
  4  5  1  0
  3  6  1  0
  6  7  1  0
  7  8  1  0
  8  9  2  0
  9 10  1  0
 10 11  1  0
 11 12  1  0
 12 13  1  0
 13 14  1  0
 14 15  2  0
 14 16  1  0
 11 17  1  0
  9 18  1  0
 18 19  2  0
 18 20  1  0
 20 21  1  0
 21 22  1  0
 12  7  1  0
  1 23  1  0
  1 24  1  0
  1 25  1  0
  2 26  1  0
  2 27  1  0
  3 28  1  0
  4 29  1  0
  4 30  1  0
  5 31  1  0
  5 32  1  0
  5 33  1  0
  7 34  1  6
  8 35  1  0
 10 36  1  0
 10 37  1  0
 11 38  1  6
 12 39  1  1
 13 40  1  0
 16 41  1  0
 16 42  1  0
 16 43  1  0
 17 44  1  0
 17 45  1  0
 21 46  1  0
 21 47  1  0
 22 48  1  0
 22 49  1  0
 22 50  1  0
M  END
