
     RDKit          3D

 40 42  0  0  0  0  0  0  0  0999 V2000
   12.4970   35.3660   29.4070 C   0  0  0  0  0  0  0  0  0  0  0  0
   11.8020   34.4360   28.4580 C   0  0  0  0  0  0  0  0  0  0  0  0
   10.8630   33.5120   28.9310 C   0  0  0  0  0  0  0  0  0  0  0  0
   10.1920   32.6650   28.0440 C   0  0  0  0  0  0  0  0  0  0  0  0
   10.4350   32.7480   26.6680 C   0  0  0  0  0  0  0  0  0  0  0  0
   11.3770   33.6680   26.1940 C   0  0  0  0  0  0  0  0  0  0  0  0
   12.0460   34.5150   27.0830 C   0  0  0  0  0  0  0  0  0  0  0  0
    9.7430   31.8530   25.7450 C   0  0  0  0  0  0  0  0  0  0  0  0
    9.0880   32.2170   24.5830 C   0  0  0  0  0  0  0  0  0  0  0  0
    8.4270   31.0610   24.1210 C   0  0  0  0  0  0  0  0  0  0  0  0
    8.6610   30.0240   24.9410 N   0  0  0  0  0  0  0  0  0  0  0  0
    9.5320   30.4810   25.8870 N   0  0  0  0  0  0  0  0  0  0  0  0
   10.0840   29.5400   26.8160 C   0  0  0  0  0  0  0  0  0  0  0  0
    9.4170   29.1610   27.9890 C   0  0  0  0  0  0  0  0  0  0  0  0
    9.9960   28.2390   28.8700 C   0  0  0  0  0  0  0  0  0  0  0  0
   11.2560   27.7070   28.5890 C   0  0  0  0  0  0  0  0  0  0  0  0
   11.9390   28.0770   27.4310 C   0  0  0  0  0  0  0  0  0  0  0  0
   11.3580   28.9980   26.5550 C   0  0  0  0  0  0  0  0  0  0  0  0
   11.9730   26.5190   29.6860 S   0  0  0  0  0  0  0  0  0  0  0  0
   11.3140   26.5980   30.9690 O   0  0  0  0  0  0  0  0  0  0  0  0
   12.1520   25.2710   28.9840 O   0  0  0  0  0  0  0  0  0  0  0  0
   13.5120   27.1470   29.9210 N   0  0  0  0  0  0  0  0  0  0  0  0
    7.5460   30.9530   22.9050 C   0  0  0  0  0  0  0  0  0  0  0  0
    6.4250   30.2200   23.1380 F   0  0  0  0  0  0  0  0  0  0  0  0
    8.1890   30.3460   21.8690 F   0  0  0  0  0  0  0  0  0  0  0  0
    7.1420   32.1660   22.4450 F   0  0  0  0  0  0  0  0  0  0  0  0
   12.2740   35.0676   30.4420 H   0  0  0  0  0  0  0  0  0  0  0  0
   13.5828   35.3186   29.2376 H   0  0  0  0  0  0  0  0  0  0  0  0
   12.1440   36.3939   29.2376 H   0  0  0  0  0  0  0  0  0  0  0  0
   10.6514   33.4519   30.0088 H   0  0  0  0  0  0  0  0  0  0  0  0
    9.4698   31.9300   28.4291 H   0  0  0  0  0  0  0  0  0  0  0  0
   11.5922   33.7251   25.1168 H   0  0  0  0  0  0  0  0  0  0  0  0
   12.7695   35.2488   26.6982 H   0  0  0  0  0  0  0  0  0  0  0  0
    9.0836   33.2113   24.1125 H   0  0  0  0  0  0  0  0  0  0  0  0
    8.4311   29.5910   28.2194 H   0  0  0  0  0  0  0  0  0  0  0  0
    9.4596   27.9348   29.7809 H   0  0  0  0  0  0  0  0  0  0  0  0
   12.9270   27.6475   27.2088 H   0  0  0  0  0  0  0  0  0  0  0  0
   11.9027   29.3038   25.6496 H   0  0  0  0  0  0  0  0  0  0  0  0
   13.7009   27.2241   30.9306 H   0  0  0  0  0  0  0  0  0  0  0  0
   14.2074   26.5225   29.4883 H   0  0  0  0  0  0  0  0  0  0  0  0
  1  2  1  0
  2  3  2  0
  3  4  1  0
  4  5  2  0
  5  6  1  0
  6  7  2  0
  5  8  1  0
  8  9  2  0
  9 10  1  0
 10 11  2  0
 11 12  1  0
 12 13  1  0
 13 14  2  0
 14 15  1  0
 15 16  2  0
 16 17  1  0
 17 18  2  0
 16 19  1  0
 19 20  2  0
 19 21  2  0
 19 22  1  0
 10 23  1  0
 23 24  1  0
 23 25  1  0
 23 26  1  0
  7  2  1  0
 12  8  1  0
 18 13  1  0
  1 27  1  0
  1 28  1  0
  1 29  1  0
  3 30  1  0
  4 31  1  0
  6 32  1  0
  7 33  1  0
  9 34  1  0
 14 35  1  0
 15 36  1  0
 17 37  1  0
 18 38  1  0
 22 39  1  0
 22 40  1  0
M  END
