
     RDKit          3D

 41 44  0  0  0  0  0  0  0  0999 V2000
   11.9090   34.8860   27.7810 C   0  0  0  0  0  0  0  0  0  0  0  0
   11.2490   34.4360   29.0840 C   0  0  0  0  0  0  0  0  0  0  0  0
   10.7150   33.0310   28.8270 C   0  0  0  0  0  0  0  0  0  0  0  0
   10.5390   32.9580   27.3090 C   0  0  0  0  0  0  0  0  0  0  0  0
   11.7800   33.7120   26.8180 C   0  0  0  0  0  0  0  0  0  0  0  0
   10.4340   31.5170   26.7610 C   0  0  1  0  0  0  0  0  0  0  0  0
    9.8710   30.4820   27.7480 C   0  0  0  0  0  0  0  0  0  0  0  0
   10.8330   29.4520   28.1660 C   0  0  0  0  0  0  0  0  0  0  0  0
   11.6240   28.6950   28.5500 N   0  0  0  0  0  0  0  0  0  0  0  0
    9.7190   31.4700   25.4850 N   0  0  0  0  0  0  0  0  0  0  0  0
    9.0870   32.5140   24.8660 C   0  0  0  0  0  0  0  0  0  0  0  0
    8.5550   32.0070   23.6970 C   0  0  0  0  0  0  0  0  0  0  0  0
    8.9030   30.6380   23.7320 C   0  0  0  0  0  0  0  0  0  0  0  0
    9.6350   30.3200   24.8030 N   0  0  0  0  0  0  0  0  0  0  0  0
    7.7540   32.7150   22.7260 C   0  0  0  0  0  0  0  0  0  0  0  0
    6.3610   32.8300   22.8100 C   0  0  0  0  0  0  0  0  0  0  0  0
    5.3100   32.4400   23.6910 C   0  0  0  0  0  0  0  0  0  0  0  0
    4.1200   32.8990   23.1660 C   0  0  0  0  0  0  0  0  0  0  0  0
    4.4080   33.5650   22.0020 N   0  0  0  0  0  0  0  0  0  0  0  0
    5.7580   33.5420   21.7810 C   0  0  0  0  0  0  0  0  0  0  0  0
    6.3610   34.1260   20.7350 N   0  0  0  0  0  0  0  0  0  0  0  0
    7.6930   33.9630   20.7770 C   0  0  0  0  0  0  0  0  0  0  0  0
    8.4170   33.3070   21.7020 N   0  0  0  0  0  0  0  0  0  0  0  0
   11.3940   35.7701   27.3771 H   0  0  0  0  0  0  0  0  0  0  0  0
   12.9614   35.1651   27.9377 H   0  0  0  0  0  0  0  0  0  0  0  0
   11.9869   34.4203   29.8996 H   0  0  0  0  0  0  0  0  0  0  0  0
   10.4434   35.1226   29.3833 H   0  0  0  0  0  0  0  0  0  0  0  0
   11.4338   32.2731   29.1717 H   0  0  0  0  0  0  0  0  0  0  0  0
    9.7762   32.8359   29.3661 H   0  0  0  0  0  0  0  0  0  0  0  0
    9.5914   33.3926   26.9581 H   0  0  0  0  0  0  0  0  0  0  0  0
   12.6712   33.0690   26.8651 H   0  0  0  0  0  0  0  0  0  0  0  0
   11.6902   34.0343   25.7701 H   0  0  0  0  0  0  0  0  0  0  0  0
   11.4788   31.2156   26.5952 H   0  0  0  0  0  0  0  0  0  0  0  0
    9.5270   31.0156   28.6463 H   0  0  0  0  0  0  0  0  0  0  0  0
    9.0597   29.9573   27.2222 H   0  0  0  0  0  0  0  0  0  0  0  0
    9.0168   33.5505   25.2276 H   0  0  0  0  0  0  0  0  0  0  0  0
    8.6036   29.9129   22.9609 H   0  0  0  0  0  0  0  0  0  0  0  0
    5.4276   31.8724   24.6259 H   0  0  0  0  0  0  0  0  0  0  0  0
    3.1202   32.7566   23.6021 H   0  0  0  0  0  0  0  0  0  0  0  0
    3.7137   34.0140   21.3878 H   0  0  0  0  0  0  0  0  0  0  0  0
    8.2618   34.4218   19.9548 H   0  0  0  0  0  0  0  0  0  0  0  0
  1  2  1  0
  2  3  1  0
  3  4  1  0
  4  5  1  0
  4  6  1  0
  6  7  1  0
  7  8  1  0
  8  9  3  0
  6 10  1  0
 10 11  1  0
 11 12  2  0
 12 13  1  0
 13 14  2  0
 12 15  1  0
 15 16  2  0
 16 17  1  0
 17 18  2  0
 18 19  1  0
 19 20  1  0
 20 21  2  0
 21 22  1  0
 22 23  2  0
  5  1  1  0
 14 10  1  0
 23 15  1  0
 20 16  1  0
  1 24  1  0
  1 25  1  0
  2 26  1  0
  2 27  1  0
  3 28  1  0
  3 29  1  0
  4 30  1  0
  5 31  1  0
  5 32  1  0
  6 33  1  6
  7 34  1  0
  7 35  1  0
 11 36  1  0
 13 37  1  0
 17 38  1  0
 18 39  1  0
 19 40  1  0
 22 41  1  0
M  END
