
     RDKit          3D

 32 34  0  0  0  0  0  0  0  0999 V2000
   61.5750  138.4950   89.8720 C   0  0  0  0  0  0  0  0  0  0  0  0
   62.2710  137.6270   90.5780 N   0  0  0  0  0  0  0  0  0  0  0  0
   61.4450  137.2840   91.6280 C   0  0  0  0  0  0  0  0  0  0  0  0
   61.6030  136.4190   92.7220 C   0  0  0  0  0  0  0  0  0  0  0  0
   60.6020  136.3220   93.6210 N   0  0  0  0  0  0  0  0  0  0  0  0
   59.4770  137.0420   93.4150 C   0  0  0  0  0  0  0  0  0  0  0  0
   59.2080  137.8920   92.3990 N   0  0  0  0  0  0  0  0  0  0  0  0
   60.2410  137.9620   91.5470 C   0  0  0  0  0  0  0  0  0  0  0  0
   60.3390  138.7190   90.4120 N   0  0  0  0  0  0  0  0  0  0  0  0
   59.3000  139.5950   89.9200 C   0  0  1  0  0  0  0  0  0  0  0  0
   59.0830  140.8790   90.7400 C   0  0  2  0  0  0  0  0  0  0  0  0
   58.5880  141.8320   89.6620 C   0  0  1  0  0  0  0  0  0  0  0  0
   59.4740  141.4290   88.4840 C   0  0  1  0  0  0  0  0  0  0  0  0
   59.5740  139.9840   88.5470 O   0  0  0  0  0  0  0  0  0  0  0  0
   58.9520  141.8390   87.1110 C   0  0  0  0  0  0  0  0  0  0  0  0
   57.9480  140.9170   86.6870 O   0  0  0  0  0  0  0  0  0  0  0  0
   57.1970  141.6250   89.4170 O   0  0  0  0  0  0  0  0  0  0  0  0
   60.3040  141.3900   91.2860 O   0  0  0  0  0  0  0  0  0  0  0  0
   58.5100  136.9050   94.3360 F   0  0  0  0  0  0  0  0  0  0  0  0
   62.7530  135.6680   92.9320 N   0  0  0  0  0  0  0  0  0  0  0  0
   61.9444  138.9815   88.9572 H   0  0  0  0  0  0  0  0  0  0  0  0
   58.3793  138.9992   90.0060 H   0  0  0  0  0  0  0  0  0  0  0  0
   58.4141  140.7301   91.6005 H   0  0  0  0  0  0  0  0  0  0  0  0
   58.6597  142.9026   89.9041 H   0  0  0  0  0  0  0  0  0  0  0  0
   60.4365  141.9526   88.5810 H   0  0  0  0  0  0  0  0  0  0  0  0
   58.5205  142.8491   87.1698 H   0  0  0  0  0  0  0  0  0  0  0  0
   59.7811  141.8351   86.3882 H   0  0  0  0  0  0  0  0  0  0  0  0
   57.5117  140.5164   87.4802 H   0  0  0  0  0  0  0  0  0  0  0  0
   56.7170  141.5536   90.2799 H   0  0  0  0  0  0  0  0  0  0  0  0
   60.2571  141.3704   92.2747 H   0  0  0  0  0  0  0  0  0  0  0  0
   62.8202  135.0471   93.7511 H   0  0  0  0  0  0  0  0  0  0  0  0
   63.5383  135.7322   92.2686 H   0  0  0  0  0  0  0  0  0  0  0  0
  1  2  2  0
  2  3  1  0
  3  4  2  0
  4  5  1  0
  5  6  2  0
  6  7  1  0
  7  8  2  0
  8  9  1  0
  9 10  1  0
 10 11  1  0
 11 12  1  0
 12 13  1  0
 13 14  1  0
 13 15  1  0
 15 16  1  0
 12 17  1  0
 11 18  1  0
  6 19  1  0
  4 20  1  0
  9  1  1  0
  8  3  1  0
 14 10  1  0
  1 21  1  0
 10 22  1  6
 11 23  1  1
 12 24  1  1
 13 25  1  6
 15 26  1  0
 15 27  1  0
 16 28  1  0
 17 29  1  0
 18 30  1  0
 20 31  1  0
 20 32  1  0
M  END
