
     RDKit          3D

 26 28  0  0  0  0  0  0  0  0999 V2000
   57.4950  138.7590   91.9530 C   0  0  0  0  0  0  0  0  0  0  0  0
   57.8560  138.4900   90.5800 N   0  0  0  0  0  0  0  0  0  0  0  0
   57.0180  137.9070   89.6660 C   0  0  0  0  0  0  0  0  0  0  0  0
   57.5990  137.7460   88.5000 N   0  0  0  0  0  0  0  0  0  0  0  0
   58.8740  138.2550   88.6640 C   0  0  0  0  0  0  0  0  0  0  0  0
   59.0530  138.7390   89.9470 C   0  0  0  0  0  0  0  0  0  0  0  0
   60.4080  139.4510   90.7670 S   0  0  0  0  0  0  0  0  0  0  0  0
   61.3600  137.9880   91.0250 C   0  0  0  0  0  0  0  0  0  0  0  0
   62.3240  137.6540   90.1420 N   0  0  0  0  0  0  0  0  0  0  0  0
   63.0590  136.5530   90.3970 C   0  0  0  0  0  0  0  0  0  0  0  0
   62.9540  135.7130   91.4330 N   0  0  0  0  0  0  0  0  0  0  0  0
   61.9820  136.0620   92.2940 C   0  0  0  0  0  0  0  0  0  0  0  0
   61.1800  137.1740   92.1220 C   0  0  0  0  0  0  0  0  0  0  0  0
   60.3310  137.1580   93.1960 N   0  0  0  0  0  0  0  0  0  0  0  0
   60.6460  136.0630   93.9520 C   0  0  0  0  0  0  0  0  0  0  0  0
   61.6470  135.3850   93.4340 N   0  0  0  0  0  0  0  0  0  0  0  0
   59.8080  138.2350   87.5590 N   0  0  0  0  0  0  0  0  0  0  0  0
   60.0890  139.3240   87.0310 O   0  0  0  0  0  0  0  0  0  0  0  0
   60.2590  137.1390   87.2070 O   0  0  0  0  0  0  0  0  0  0  0  0
   58.1936  138.2384   92.6245 H   0  0  0  0  0  0  0  0  0  0  0  0
   57.5449  139.8419   92.1399 H   0  0  0  0  0  0  0  0  0  0  0  0
   56.4716  138.4015   92.1399 H   0  0  0  0  0  0  0  0  0  0  0  0
   55.9816  137.6093   89.8835 H   0  0  0  0  0  0  0  0  0  0  0  0
   63.8423  136.3158   89.6620 H   0  0  0  0  0  0  0  0  0  0  0  0
   59.5906  137.8450   93.3976 H   0  0  0  0  0  0  0  0  0  0  0  0
   60.1258  135.7833   94.8800 H   0  0  0  0  0  0  0  0  0  0  0  0
  1  2  1  0
  2  3  1  0
  3  4  2  0
  4  5  1  0
  5  6  2  0
  6  7  1  0
  7  8  1  0
  8  9  2  0
  9 10  1  0
 10 11  2  0
 11 12  1  0
 12 13  2  0
 13 14  1  0
 14 15  1  0
 15 16  2  0
  5 17  1  0
 17 18  2  0
 17 19  1  0
  6  2  1  0
 13  8  1  0
 16 12  1  0
  1 20  1  0
  1 21  1  0
  1 22  1  0
  3 23  1  0
 10 24  1  0
 14 25  1  0
 15 26  1  0
M  CHG  2  17   1  19  -1
M  END
