
     RDKit          3D

 55 57  0  0  0  0  0  0  0  0999 V2000
   54.5280  141.2690   93.3260 C   0  0  0  0  0  0  0  0  0  0  0  0
   54.8560  140.3850   92.2070 N   0  0  0  0  0  0  0  0  0  0  0  0
   53.8370  140.3250   91.1360 C   0  0  0  0  0  0  0  0  0  0  0  0
   52.7460  139.3120   91.4120 C   0  0  0  0  0  0  0  0  0  0  0  0
   53.0420  138.0590   91.9150 C   0  0  0  0  0  0  0  0  0  0  0  0
   52.0950  137.1220   92.1640 N   0  0  0  0  0  0  0  0  0  0  0  0
   50.8200  137.4300   91.9010 C   0  0  0  0  0  0  0  0  0  0  0  0
   50.5110  138.6970   91.3940 C   0  0  0  0  0  0  0  0  0  0  0  0
   51.4620  139.6460   91.1320 N   0  0  0  0  0  0  0  0  0  0  0  0
   49.1500  138.8860   91.1690 C   0  0  0  0  0  0  0  0  0  0  0  0
   48.2110  137.9590   91.4100 N   0  0  0  0  0  0  0  0  0  0  0  0
   48.6400  136.7890   91.8720 C   0  0  0  0  0  0  0  0  0  0  0  0
   49.9050  136.4960   92.1400 N   0  0  0  0  0  0  0  0  0  0  0  0
   47.6930  135.8210   92.1280 N   0  0  0  0  0  0  0  0  0  0  0  0
   48.6630  140.1310   90.7330 N   0  0  0  0  0  0  0  0  0  0  0  0
   56.1920  140.2360   91.8290 C   0  0  0  0  0  0  0  0  0  0  0  0
   57.0210  141.3240   91.5150 C   0  0  0  0  0  0  0  0  0  0  0  0
   58.3590  141.1490   91.1300 C   0  0  0  0  0  0  0  0  0  0  0  0
   58.9090  139.8670   91.0700 C   0  0  0  0  0  0  0  0  0  0  0  0
   58.1050  138.7700   91.3810 C   0  0  0  0  0  0  0  0  0  0  0  0
   56.7710  138.9580   91.7620 C   0  0  0  0  0  0  0  0  0  0  0  0
   60.3200  139.6170   90.6660 C   0  0  0  0  0  0  0  0  0  0  0  0
   61.1090  140.5510   90.5640 O   0  0  0  0  0  0  0  0  0  0  0  0
   60.6680  138.3150   90.3960 N   0  0  0  0  0  0  0  0  0  0  0  0
   62.0210  137.9480   89.9600 C   0  0  1  0  0  0  0  0  0  0  0  0
   62.5230  136.7380   90.7560 C   0  0  0  0  0  0  0  0  0  0  0  0
   62.5270  136.9440   92.2740 C   0  0  0  0  0  0  0  0  0  0  0  0
   61.4150  136.2680   93.0310 C   0  0  0  0  0  0  0  0  0  0  0  0
   61.4050  135.0990   93.3850 O   0  0  0  0  0  0  0  0  0  0  0  0
   60.4120  137.0880   93.3880 O   0  0  0  0  0  0  0  0  0  0  0  0
   61.9300  137.6740   88.4610 C   0  0  0  0  0  0  0  0  0  0  0  0
   61.9060  138.5170   87.5760 O   0  0  0  0  0  0  0  0  0  0  0  0
   61.8910  136.3620   88.1630 O   0  0  0  0  0  0  0  0  0  0  0  0
   54.7217  140.7470   94.2747 H   0  0  0  0  0  0  0  0  0  0  0  0
   55.1499  142.1747   93.2723 H   0  0  0  0  0  0  0  0  0  0  0  0
   53.4658  141.5499   93.2723 H   0  0  0  0  0  0  0  0  0  0  0  0
   53.3754  141.3184   91.0356 H   0  0  0  0  0  0  0  0  0  0  0  0
   54.3483  140.0140   90.2131 H   0  0  0  0  0  0  0  0  0  0  0  0
   54.0935  137.8112   92.1225 H   0  0  0  0  0  0  0  0  0  0  0  0
   47.9821  134.8999   92.4870 H   0  0  0  0  0  0  0  0  0  0  0  0
   46.6961  136.0187   91.9603 H   0  0  0  0  0  0  0  0  0  0  0  0
   47.6544  140.2608   90.5693 H   0  0  0  0  0  0  0  0  0  0  0  0
   49.3149  140.9131   90.5773 H   0  0  0  0  0  0  0  0  0  0  0  0
   56.6103  142.3428   91.5723 H   0  0  0  0  0  0  0  0  0  0  0  0
   58.9757  142.0234   90.8750 H   0  0  0  0  0  0  0  0  0  0  0  0
   58.5210  137.7531   91.3266 H   0  0  0  0  0  0  0  0  0  0  0  0
   56.1590  138.0800   92.0161 H   0  0  0  0  0  0  0  0  0  0  0  0
   59.9591  137.5754   90.5026 H   0  0  0  0  0  0  0  0  0  0  0  0
   62.7505  138.7503   90.1449 H   0  0  0  0  0  0  0  0  0  0  0  0
   61.8741  135.8801   90.5258 H   0  0  0  0  0  0  0  0  0  0  0  0
   63.5685  136.5735   90.4561 H   0  0  0  0  0  0  0  0  0  0  0  0
   63.4817  136.5612   92.6638 H   0  0  0  0  0  0  0  0  0  0  0  0
   62.3802  138.0231   92.4289 H   0  0  0  0  0  0  0  0  0  0  0  0
   59.6363  136.7320   93.8897 H   0  0  0  0  0  0  0  0  0  0  0  0
   61.8317  136.0704   87.2188 H   0  0  0  0  0  0  0  0  0  0  0  0
  1  2  1  0
  2  3  1  0
  3  4  1  0
  4  5  2  0
  5  6  1  0
  6  7  2  0
  7  8  1  0
  8  9  2  0
  8 10  1  0
 10 11  2  0
 11 12  1  0
 12 13  2  0
 12 14  1  0
 10 15  1  0
  2 16  1  0
 16 17  2  0
 17 18  1  0
 18 19  2  0
 19 20  1  0
 20 21  2  0
 19 22  1  0
 22 23  2  0
 22 24  1  0
 24 25  1  0
 25 26  1  0
 26 27  1  0
 27 28  1  0
 28 29  2  0
 28 30  1  0
 25 31  1  0
 31 32  2  0
 31 33  1  0
  9  4  1  0
 13  7  1  0
 21 16  1  0
  1 34  1  0
  1 35  1  0
  1 36  1  0
  3 37  1  0
  3 38  1  0
  5 39  1  0
 14 40  1  0
 14 41  1  0
 15 42  1  0
 15 43  1  0
 17 44  1  0
 18 45  1  0
 20 46  1  0
 21 47  1  0
 24 48  1  0
 25 49  1  6
 26 50  1  0
 26 51  1  0
 27 52  1  0
 27 53  1  0
 30 54  1  0
 33 55  1  0
M  END
