
     RDKit          3D

 43 45  0  0  0  0  0  0  0  0999 V2000
    2.5800   29.7040   24.1000 C   0  0  0  0  0  0  0  0  0  0  0  0
    3.9900   29.6450   23.6040 C   0  0  0  0  0  0  0  0  0  0  0  0
    4.9970   30.3270   24.2650 C   0  0  0  0  0  0  0  0  0  0  0  0
    6.2900   30.3300   23.8790 N   0  0  0  0  0  0  0  0  0  0  0  0
    6.6400   29.5940   22.7930 C   0  0  0  0  0  0  0  0  0  0  0  0
    5.7010   28.8680   22.0440 C   0  0  0  0  0  0  0  0  0  0  0  0
    4.3590   28.9540   22.4470 C   0  0  0  0  0  0  0  0  0  0  0  0
    3.3890   28.2870   21.7370 O   0  0  0  0  0  0  0  0  0  0  0  0
    2.8580   29.1280   20.7110 C   0  0  0  0  0  0  0  0  0  0  0  0
    6.0950   28.0760   20.8280 C   0  0  0  0  0  0  0  0  0  0  0  0
    8.1080   29.6160   22.4480 C   0  0  0  0  0  0  0  0  0  0  0  0
    9.0230   28.3080   23.3230 S   0  0  0  0  0  0  0  0  0  0  0  0
    8.0550   27.3150   23.9040 O   0  0  0  0  0  0  0  0  0  0  0  0
    9.5300   29.3200   24.7250 C   0  0  0  0  0  0  0  0  0  0  0  0
    9.9530   28.8570   25.8820 N   0  0  0  0  0  0  0  0  0  0  0  0
   10.2170   29.9770   26.6320 C   0  0  0  0  0  0  0  0  0  0  0  0
    9.9500   31.1370   25.9150 C   0  0  0  0  0  0  0  0  0  0  0  0
    9.5100   30.6870   24.6980 N   0  0  0  0  0  0  0  0  0  0  0  0
   10.1350   32.4190   26.4370 C   0  0  0  0  0  0  0  0  0  0  0  0
   10.6110   32.5160   27.7520 C   0  0  0  0  0  0  0  0  0  0  0  0
   10.8870   31.3630   28.4960 C   0  0  0  0  0  0  0  0  0  0  0  0
   10.6930   30.0850   27.9460 C   0  0  0  0  0  0  0  0  0  0  0  0
   10.7660   33.8050   28.1930 O   0  0  0  0  0  0  0  0  0  0  0  0
   11.8900   34.5260   27.7050 C   0  0  0  0  0  0  0  0  0  0  0  0
    2.5780   29.7041   25.2000 H   0  0  0  0  0  0  0  0  0  0  0  0
    2.1001   30.6230   23.7324 H   0  0  0  0  0  0  0  0  0  0  0  0
    2.0250   28.8283   23.7324 H   0  0  0  0  0  0  0  0  0  0  0  0
    4.7260   30.9032   25.1620 H   0  0  0  0  0  0  0  0  0  0  0  0
    2.3242   29.9734   21.1696 H   0  0  0  0  0  0  0  0  0  0  0  0
    3.6800   29.5085   20.0868 H   0  0  0  0  0  0  0  0  0  0  0  0
    2.1611   28.5495   20.0868 H   0  0  0  0  0  0  0  0  0  0  0  0
    6.5646   27.1320   21.1416 H   0  0  0  0  0  0  0  0  0  0  0  0
    5.2002   27.8583   20.2264 H   0  0  0  0  0  0  0  0  0  0  0  0
    6.8084   28.6584   20.2264 H   0  0  0  0  0  0  0  0  0  0  0  0
    8.2220   29.4672   21.3641 H   0  0  0  0  0  0  0  0  0  0  0  0
    8.5190   30.5884   22.7570 H   0  0  0  0  0  0  0  0  0  0  0  0
    9.2164   31.2739   23.9041 H   0  0  0  0  0  0  0  0  0  0  0  0
    9.9160   33.3167   25.8402 H   0  0  0  0  0  0  0  0  0  0  0  0
   11.2611   31.4590   29.5260 H   0  0  0  0  0  0  0  0  0  0  0  0
   10.9112   29.1833   28.5371 H   0  0  0  0  0  0  0  0  0  0  0  0
   12.4795   34.9041   28.5532 H   0  0  0  0  0  0  0  0  0  0  0  0
   12.5150   33.8599   27.0921 H   0  0  0  0  0  0  0  0  0  0  0  0
   11.5451   35.3718   27.0921 H   0  0  0  0  0  0  0  0  0  0  0  0
  1  2  1  0
  2  3  2  0
  3  4  1  0
  4  5  2  0
  5  6  1  0
  6  7  2  0
  7  8  1  0
  8  9  1  0
  6 10  1  0
  5 11  1  0
 11 12  1  0
 12 13  2  0
 12 14  1  0
 14 15  2  0
 15 16  1  0
 16 17  2  0
 17 18  1  0
 17 19  1  0
 19 20  2  0
 20 21  1  0
 21 22  2  0
 20 23  1  0
 23 24  1  0
  7  2  1  0
 18 14  1  0
 22 16  1  0
  1 25  1  0
  1 26  1  0
  1 27  1  0
  3 28  1  0
  9 29  1  0
  9 30  1  0
  9 31  1  0
 10 32  1  0
 10 33  1  0
 10 34  1  0
 11 35  1  0
 11 36  1  0
 18 37  1  0
 19 38  1  0
 21 39  1  0
 22 40  1  0
 24 41  1  0
 24 42  1  0
 24 43  1  0
M  END
