
     RDKit          3D

 33 34  0  0  0  0  0  0  0  0999 V2000
    5.5180   29.0570   22.9640 C   0  0  0  0  0  0  0  0  0  0  0  0
    6.8940   29.6240   23.3020 C   0  0  2  0  0  0  0  0  0  0  0  0
    7.1380   29.5240   24.8160 C   0  0  0  0  0  0  0  0  0  0  0  0
    8.4900   29.0900   25.1060 N   0  0  0  0  0  0  0  0  0  0  0  0
    9.2250   28.1960   24.3770 C   0  0  0  0  0  0  0  0  0  0  0  0
   10.3920   27.9510   24.9360 N   0  0  0  0  0  0  0  0  0  0  0  0
   10.4130   28.7400   26.0700 C   0  0  0  0  0  0  0  0  0  0  0  0
   11.3710   28.9320   27.0790 C   0  0  0  0  0  0  0  0  0  0  0  0
   11.0970   29.8110   28.0710 N   0  0  0  0  0  0  0  0  0  0  0  0
    9.9010   30.4410   28.0590 C   0  0  0  0  0  0  0  0  0  0  0  0
    8.9020   30.3270   27.1590 N   0  0  0  0  0  0  0  0  0  0  0  0
    9.2370   29.4630   26.1880 C   0  0  0  0  0  0  0  0  0  0  0  0
   12.5940   28.2750   27.1030 N   0  0  0  0  0  0  0  0  0  0  0  0
    6.9650   31.0120   22.9420 O   0  0  0  0  0  0  0  0  0  0  0  0
    8.3060   31.5240   22.9050 C   0  0  0  0  0  0  0  0  0  0  0  0
    8.3000   33.0950   23.7880 P   0  0  0  0  0  0  0  0  0  0  0  0
    9.0980   34.2080   23.1960 O   0  0  0  0  0  0  0  0  0  0  0  0
    6.7470   33.4430   23.9980 O   0  0  0  0  0  0  0  0  0  0  0  0
    8.7260   32.7150   25.2870 O   0  0  0  0  0  0  0  0  0  0  0  0
    4.9750   28.8333   23.8941 H   0  0  0  0  0  0  0  0  0  0  0  0
    4.9514   29.7949   22.3771 H   0  0  0  0  0  0  0  0  0  0  0  0
    5.6358   28.1341   22.3771 H   0  0  0  0  0  0  0  0  0  0  0  0
    7.6474   29.0479   22.7447 H   0  0  0  0  0  0  0  0  0  0  0  0
    6.9739   30.5119   25.2710 H   0  0  0  0  0  0  0  0  0  0  0  0
    6.4397   28.7823   25.2310 H   0  0  0  0  0  0  0  0  0  0  0  0
    8.8828   27.7372   23.4376 H   0  0  0  0  0  0  0  0  0  0  0  0
    9.7184   31.1370   28.8910 H   0  0  0  0  0  0  0  0  0  0  0  0
   13.2599   28.4540   27.8682 H   0  0  0  0  0  0  0  0  0  0  0  0
   12.8354   27.6086   26.3556 H   0  0  0  0  0  0  0  0  0  0  0  0
    8.9927   30.8184   23.3955 H   0  0  0  0  0  0  0  0  0  0  0  0
    8.6438   31.6603   21.8671 H   0  0  0  0  0  0  0  0  0  0  0  0
    6.5469   33.4878   24.9665 H   0  0  0  0  0  0  0  0  0  0  0  0
    8.1627   33.2175   25.9276 H   0  0  0  0  0  0  0  0  0  0  0  0
  1  2  1  0
  2  3  1  0
  3  4  1  0
  4  5  1  0
  5  6  2  0
  6  7  1  0
  7  8  2  0
  8  9  1  0
  9 10  2  0
 10 11  1  0
 11 12  2  0
  8 13  1  0
  2 14  1  0
 14 15  1  0
 15 16  1  0
 16 17  2  0
 16 18  1  0
 16 19  1  0
 12  4  1  0
 12  7  1  0
  1 20  1  0
  1 21  1  0
  1 22  1  0
  2 23  1  6
  3 24  1  0
  3 25  1  0
  5 26  1  0
 10 27  1  0
 13 28  1  0
 13 29  1  0
 15 30  1  0
 15 31  1  0
 18 32  1  0
 19 33  1  0
M  END
