
     RDKit          3D

 47 50  0  0  0  0  0  0  0  0999 V2000
   10.7950   33.3420   27.8430 C   0  0  0  0  0  0  0  0  0  0  0  0
   10.4390   32.2480   28.8500 C   0  0  0  0  0  0  0  0  0  0  0  0
   10.7020   30.8570   28.2870 C   0  0  0  0  0  0  0  0  0  0  0  0
    9.8230   30.5780   27.0500 C   0  0  0  0  0  0  0  0  0  0  0  0
    9.6470   31.8320   26.1670 C   0  0  0  0  0  0  0  0  0  0  0  0
   10.7430   32.8690   26.3910 C   0  0  0  0  0  0  0  0  0  0  0  0
   10.3690   29.4000   26.2320 C   0  0  0  0  0  0  0  0  0  0  0  0
   11.5050   28.9640   26.4300 O   0  0  0  0  0  0  0  0  0  0  0  0
    9.5610   28.8550   25.2390 N   0  0  0  0  0  0  0  0  0  0  0  0
    8.1140   29.0440   25.1270 C   0  0  0  0  0  0  0  0  0  0  0  0
    7.6630   29.0240   23.6520 C   0  0  0  0  0  0  0  0  0  0  0  0
    6.1690   29.2810   23.4380 C   0  0  0  0  0  0  0  0  0  0  0  0
    5.3370   29.8870   24.3930 C   0  0  0  0  0  0  0  0  0  0  0  0
    3.9960   30.1580   24.1070 C   0  0  0  0  0  0  0  0  0  0  0  0
    3.4650   29.8430   22.8590 C   0  0  0  0  0  0  0  0  0  0  0  0
    4.2720   29.2500   21.8950 C   0  0  0  0  0  0  0  0  0  0  0  0
    5.6120   28.9610   22.1810 C   0  0  0  0  0  0  0  0  0  0  0  0
    6.4970   28.3160   21.1510 C   0  0  0  0  0  0  0  0  0  0  0  0
    7.3820   27.2760   21.8300 C   0  0  0  0  0  0  0  0  0  0  0  0
    8.1320   27.7980   22.9720 N   0  0  0  0  0  0  0  0  0  0  0  0
    9.3190   27.1660   23.3180 C   0  0  0  0  0  0  0  0  0  0  0  0
    9.7400   26.1860   22.7000 O   0  0  0  0  0  0  0  0  0  0  0  0
   10.0920   27.6910   24.5360 C   0  0  0  0  0  0  0  0  0  0  0  0
   10.0846   34.1729   27.9649 H   0  0  0  0  0  0  0  0  0  0  0  0
   11.8314   33.6482   28.0483 H   0  0  0  0  0  0  0  0  0  0  0  0
   11.0465   32.3864   29.7565 H   0  0  0  0  0  0  0  0  0  0  0  0
    9.3660   32.3283   29.0786 H   0  0  0  0  0  0  0  0  0  0  0  0
   11.7608   30.7813   27.9987 H   0  0  0  0  0  0  0  0  0  0  0  0
   10.4561   30.1163   29.0621 H   0  0  0  0  0  0  0  0  0  0  0  0
    8.8258   30.3009   27.4227 H   0  0  0  0  0  0  0  0  0  0  0  0
    9.6645   31.5241   25.1111 H   0  0  0  0  0  0  0  0  0  0  0  0
    8.6885   32.2979   26.4393 H   0  0  0  0  0  0  0  0  0  0  0  0
   11.7134   32.4227   26.1279 H   0  0  0  0  0  0  0  0  0  0  0  0
   10.5210   33.7404   25.7574 H   0  0  0  0  0  0  0  0  0  0  0  0
    7.6031   28.2350   25.6697 H   0  0  0  0  0  0  0  0  0  0  0  0
    7.8555   30.0226   25.5578 H   0  0  0  0  0  0  0  0  0  0  0  0
    8.1509   29.8880   23.1771 H   0  0  0  0  0  0  0  0  0  0  0  0
    5.7459   30.1519   25.3792 H   0  0  0  0  0  0  0  0  0  0  0  0
    3.3566   30.6227   24.8720 H   0  0  0  0  0  0  0  0  0  0  0  0
    2.4103   30.0627   22.6366 H   0  0  0  0  0  0  0  0  0  0  0  0
    3.8572   29.0073   20.9055 H   0  0  0  0  0  0  0  0  0  0  0  0
    5.8755   27.8272   20.3862 H   0  0  0  0  0  0  0  0  0  0  0  0
    7.1264   29.0814   20.6734 H   0  0  0  0  0  0  0  0  0  0  0  0
    6.7431   26.4523   22.1813 H   0  0  0  0  0  0  0  0  0  0  0  0
    8.1202   26.9458   21.0843 H   0  0  0  0  0  0  0  0  0  0  0  0
   10.1512   26.8688   25.2643 H   0  0  0  0  0  0  0  0  0  0  0  0
   11.0515   28.0356   24.1229 H   0  0  0  0  0  0  0  0  0  0  0  0
  1  2  1  0
  2  3  1  0
  3  4  1  0
  4  5  1  0
  5  6  1  0
  4  7  1  0
  7  8  2  0
  7  9  1  0
  9 10  1  0
 10 11  1  0
 11 12  1  0
 12 13  2  0
 13 14  1  0
 14 15  2  0
 15 16  1  0
 16 17  2  0
 17 18  1  0
 18 19  1  0
 19 20  1  0
 20 21  1  0
 21 22  2  0
 21 23  1  0
  6  1  1  0
 23  9  1  0
 20 11  1  0
 17 12  1  0
  1 24  1  0
  1 25  1  0
  2 26  1  0
  2 27  1  0
  3 28  1  0
  3 29  1  0
  4 30  1  0
  5 31  1  0
  5 32  1  0
  6 33  1  0
  6 34  1  0
 10 35  1  0
 10 36  1  0
 11 37  1  0
 13 38  1  0
 14 39  1  0
 15 40  1  0
 16 41  1  0
 18 42  1  0
 18 43  1  0
 19 44  1  0
 19 45  1  0
 23 46  1  0
 23 47  1  0
M  END
