
     RDKit          3D

 42 43  0  0  0  0  0  0  0  0999 V2000
    7.7520   26.6610   23.5330 C   0  0  0  0  0  0  0  0  0  0  0  0
    9.0200   27.0190   22.7630 C   0  0  0  0  0  0  0  0  0  0  0  0
   10.2350   26.3110   23.3530 C   0  0  0  0  0  0  0  0  0  0  0  0
    9.2480   28.5180   22.7710 C   0  0  0  0  0  0  0  0  0  0  0  0
   10.3240   29.0740   22.6020 O   0  0  0  0  0  0  0  0  0  0  0  0
    8.0690   29.1700   22.9850 O   0  0  0  0  0  0  0  0  0  0  0  0
    8.0860   30.5770   22.6810 C   0  0  0  0  0  0  0  0  0  0  0  0
    7.6710   31.4120   23.9020 C   0  0  2  0  0  0  0  0  0  0  0  0
    8.5160   32.6770   24.0450 C   0  0  2  0  0  0  0  0  0  0  0  0
    9.6650   32.1960   24.9150 C   0  0  2  0  0  0  0  0  0  0  0  0
    8.9120   31.2750   25.8890 C   0  0  1  0  0  0  0  0  0  0  0  0
    7.8930   30.6190   25.0990 O   0  0  0  0  0  0  0  0  0  0  0  0
    9.7720   30.2930   26.5360 N   0  0  0  0  0  0  0  0  0  0  0  0
   10.0100   29.0600   25.9720 C   0  0  0  0  0  0  0  0  0  0  0  0
   10.8430   28.1920   26.5420 C   0  0  0  0  0  0  0  0  0  0  0  0
   11.4930   28.6380   27.7940 C   0  0  0  0  0  0  0  0  0  0  0  0
   11.2800   29.8120   28.3150 N   0  0  0  0  0  0  0  0  0  0  0  0
   10.4160   30.6930   27.7100 C   0  0  0  0  0  0  0  0  0  0  0  0
   10.2080   31.7960   28.2100 O   0  0  0  0  0  0  0  0  0  0  0  0
   12.3710   27.7760   28.4330 N   0  0  0  0  0  0  0  0  0  0  0  0
   12.5670   28.0900   29.7870 O   0  0  0  0  0  0  0  0  0  0  0  0
   10.3650   33.2780   25.5070 O   0  0  0  0  0  0  0  0  0  0  0  0
    7.7970   33.6880   24.7710 O   0  0  0  0  0  0  0  0  0  0  0  0
    7.9509   26.7172   24.6134 H   0  0  0  0  0  0  0  0  0  0  0  0
    6.9515   27.3682   23.2703 H   0  0  0  0  0  0  0  0  0  0  0  0
    7.4396   25.6395   23.2703 H   0  0  0  0  0  0  0  0  0  0  0  0
    8.8854   26.6833   21.7242 H   0  0  0  0  0  0  0  0  0  0  0  0
   10.1805   26.3428   24.4512 H   0  0  0  0  0  0  0  0  0  0  0  0
   10.2483   25.2638   23.0167 H   0  0  0  0  0  0  0  0  0  0  0  0
   11.1527   26.8158   23.0167 H   0  0  0  0  0  0  0  0  0  0  0  0
    9.1026   30.8665   22.3766 H   0  0  0  0  0  0  0  0  0  0  0  0
    7.3699   30.7673   21.8680 H   0  0  0  0  0  0  0  0  0  0  0  0
    6.6162   31.6945   23.7694 H   0  0  0  0  0  0  0  0  0  0  0  0
    8.8081   33.1108   23.0773 H   0  0  0  0  0  0  0  0  0  0  0  0
   10.4822   31.6741   24.3955 H   0  0  0  0  0  0  0  0  0  0  0  0
    8.4905   31.8679   26.7141 H   0  0  0  0  0  0  0  0  0  0  0  0
    9.5033   28.7874   25.0345 H   0  0  0  0  0  0  0  0  0  0  0  0
   11.0369   27.2004   26.1072 H   0  0  0  0  0  0  0  0  0  0  0  0
   12.8328   26.9851   27.9618 H   0  0  0  0  0  0  0  0  0  0  0  0
   12.1363   27.4001   30.3514 H   0  0  0  0  0  0  0  0  0  0  0  0
   10.3162   33.2026   26.4929 H   0  0  0  0  0  0  0  0  0  0  0  0
    7.9052   33.5359   25.7433 H   0  0  0  0  0  0  0  0  0  0  0  0
  1  2  1  0
  2  3  1  0
  2  4  1  0
  4  5  2  0
  4  6  1  0
  6  7  1  0
  7  8  1  0
  8  9  1  0
  9 10  1  0
 10 11  1  0
 11 12  1  0
 11 13  1  0
 13 14  1  0
 14 15  2  0
 15 16  1  0
 16 17  2  0
 17 18  1  0
 18 19  2  0
 16 20  1  0
 20 21  1  0
 10 22  1  0
  9 23  1  0
 12  8  1  0
 18 13  1  0
  1 24  1  0
  1 25  1  0
  1 26  1  0
  2 27  1  0
  3 28  1  0
  3 29  1  0
  3 30  1  0
  7 31  1  0
  7 32  1  0
  8 33  1  6
  9 34  1  6
 10 35  1  6
 11 36  1  1
 14 37  1  0
 15 38  1  0
 20 39  1  0
 21 40  1  0
 22 41  1  0
 23 42  1  0
M  END
