
     RDKit          3D

 52 54  0  0  0  0  0  0  0  0999 V2000
   57.3430  139.6970   91.2450 C   0  0  0  0  0  0  0  0  0  0  0  0
   56.6500  139.0630   92.4740 C   0  0  0  0  0  0  0  0  0  0  0  0
   55.2640  138.6330   92.2370 N   0  0  0  0  0  0  0  0  0  0  0  0
   54.9990  138.3880   90.8070 C   0  0  0  0  0  0  0  0  0  0  0  0
   56.2460  137.8590   90.0650 C   0  0  0  0  0  0  0  0  0  0  0  0
   57.3490  138.8420   90.0400 N   0  0  0  0  0  0  0  0  0  0  0  0
   58.6570  138.2070   89.8160 C   0  0  0  0  0  0  0  0  0  0  0  0
   59.7540  138.5580   90.8480 C   0  0  0  0  0  0  0  0  0  0  0  0
   59.7940  137.7150   91.9990 O   0  0  0  0  0  0  0  0  0  0  0  0
   61.0960  137.2580   92.3360 C   0  0  0  0  0  0  0  0  0  0  0  0
   61.0640  136.1590   93.3890 C   0  0  0  0  0  0  0  0  0  0  0  0
   61.4670  135.0110   93.2990 O   0  0  0  0  0  0  0  0  0  0  0  0
   60.4920  136.5800   94.5400 O   0  0  0  0  0  0  0  0  0  0  0  0
   54.1960  139.4130   92.9070 C   0  0  0  0  0  0  0  0  0  0  0  0
   54.0440  139.1190   94.4080 C   0  0  0  0  0  0  0  0  0  0  0  0
   54.3510  137.8400   94.9050 C   0  0  0  0  0  0  0  0  0  0  0  0
   54.2180  137.5440   96.2640 C   0  0  0  0  0  0  0  0  0  0  0  0
   53.7830  138.5230   97.1510 C   0  0  0  0  0  0  0  0  0  0  0  0
   53.4830  139.7990   96.6840 C   0  0  0  0  0  0  0  0  0  0  0  0
   53.6130  140.0960   95.3250 C   0  0  0  0  0  0  0  0  0  0  0  0
   52.8600  139.4330   92.1270 C   0  0  0  0  0  0  0  0  0  0  0  0
   52.0070  138.3110   92.1680 C   0  0  0  0  0  0  0  0  0  0  0  0
   50.7760  138.3110   91.5030 C   0  0  0  0  0  0  0  0  0  0  0  0
   50.3700  139.4420   90.8030 C   0  0  0  0  0  0  0  0  0  0  0  0
   51.1770  140.5740   90.7720 C   0  0  0  0  0  0  0  0  0  0  0  0
   52.4080  140.5720   91.4380 C   0  0  0  0  0  0  0  0  0  0  0  0
   48.8570  139.4450   89.9840 Cl  0  0  0  0  0  0  0  0  0  0  0  0
   56.8202  140.6333   91.0001 H   0  0  0  0  0  0  0  0  0  0  0  0
   58.3953  139.8542   91.5240 H   0  0  0  0  0  0  0  0  0  0  0  0
   57.2346  138.1839   92.7828 H   0  0  0  0  0  0  0  0  0  0  0  0
   56.6077  139.8441   93.2474 H   0  0  0  0  0  0  0  0  0  0  0  0
   54.1924  137.6453   90.7183 H   0  0  0  0  0  0  0  0  0  0  0  0
   54.7135  139.3458   90.3475 H   0  0  0  0  0  0  0  0  0  0  0  0
   56.5972  136.9475   90.5708 H   0  0  0  0  0  0  0  0  0  0  0  0
   55.9547  137.6570   89.0237 H   0  0  0  0  0  0  0  0  0  0  0  0
   58.5117  137.1168   89.8337 H   0  0  0  0  0  0  0  0  0  0  0  0
   59.0174  138.5912   88.8503 H   0  0  0  0  0  0  0  0  0  0  0  0
   60.7295  138.4930   90.3439 H   0  0  0  0  0  0  0  0  0  0  0  0
   59.5174  139.5674   91.2155 H   0  0  0  0  0  0  0  0  0  0  0  0
   61.5798  136.8660   91.4292 H   0  0  0  0  0  0  0  0  0  0  0  0
   61.6558  138.1086   92.7520 H   0  0  0  0  0  0  0  0  0  0  0  0
   60.4089  135.9598   95.3072 H   0  0  0  0  0  0  0  0  0  0  0  0
   54.5533  140.4529   92.8768 H   0  0  0  0  0  0  0  0  0  0  0  0
   54.7014  137.0601   94.2129 H   0  0  0  0  0  0  0  0  0  0  0  0
   54.4576  136.5357   96.6328 H   0  0  0  0  0  0  0  0  0  0  0  0
   53.6762  138.2888   98.2205 H   0  0  0  0  0  0  0  0  0  0  0  0
   53.1430  140.5749   97.3857 H   0  0  0  0  0  0  0  0  0  0  0  0
   53.3750  141.1083   94.9664 H   0  0  0  0  0  0  0  0  0  0  0  0
   52.3151  137.4191   92.7333 H   0  0  0  0  0  0  0  0  0  0  0  0
   50.1318  137.4199   91.5337 H   0  0  0  0  0  0  0  0  0  0  0  0
   50.8483  141.4698   90.2248 H   0  0  0  0  0  0  0  0  0  0  0  0
   53.0326  141.4773   91.4220 H   0  0  0  0  0  0  0  0  0  0  0  0
  1  2  1  0
  2  3  1  0
  3  4  1  0
  4  5  1  0
  5  6  1  0
  6  7  1  0
  7  8  1  0
  8  9  1  0
  9 10  1  0
 10 11  1  0
 11 12  2  0
 11 13  1  0
  3 14  1  0
 14 15  1  0
 15 16  2  0
 16 17  1  0
 17 18  2  0
 18 19  1  0
 19 20  2  0
 14 21  1  0
 21 22  2  0
 22 23  1  0
 23 24  2  0
 24 25  1  0
 25 26  2  0
 24 27  1  0
  6  1  1  0
 20 15  1  0
 26 21  1  0
  1 28  1  0
  1 29  1  0
  2 30  1  0
  2 31  1  0
  4 32  1  0
  4 33  1  0
  5 34  1  0
  5 35  1  0
  7 36  1  0
  7 37  1  0
  8 38  1  0
  8 39  1  0
 10 40  1  0
 10 41  1  0
 13 42  1  0
 14 43  1  0
 16 44  1  0
 17 45  1  0
 18 46  1  0
 19 47  1  0
 20 48  1  0
 22 49  1  0
 23 50  1  0
 25 51  1  0
 26 52  1  0
M  END
