
     RDKit          3D

 52 54  0  0  0  0  0  0  0  0999 V2000
   61.1580  136.2140   93.6610 C   0  0  0  0  0  0  0  0  0  0  0  0
   61.8530  135.5690   92.6020 O   0  0  0  0  0  0  0  0  0  0  0  0
   62.4490  136.4880   91.6870 C   0  0  0  0  0  0  0  0  0  0  0  0
   62.2910  137.9360   92.1500 C   0  0  0  0  0  0  0  0  0  0  0  0
   61.8460  138.7180   91.0440 O   0  0  0  0  0  0  0  0  0  0  0  0
   60.6090  138.4420   90.5200 C   0  0  0  0  0  0  0  0  0  0  0  0
   60.5790  138.0640   89.1690 C   0  0  0  0  0  0  0  0  0  0  0  0
   59.3520  137.7700   88.5680 C   0  0  0  0  0  0  0  0  0  0  0  0
   58.1520  137.8530   89.2630 C   0  0  0  0  0  0  0  0  0  0  0  0
   58.1690  138.2520   90.6040 C   0  0  0  0  0  0  0  0  0  0  0  0
   59.4100  138.5380   91.2280 C   0  0  0  0  0  0  0  0  0  0  0  0
   56.9090  138.3240   91.2330 C   0  0  0  0  0  0  0  0  0  0  0  0
   55.7730  138.0030   90.5890 N   0  0  0  0  0  0  0  0  0  0  0  0
   55.8880  137.6290   89.3120 C   0  0  0  0  0  0  0  0  0  0  0  0
   57.0250  137.5470   88.6140 N   0  0  0  0  0  0  0  0  0  0  0  0
   56.8410  138.7730   92.5800 N   0  0  0  0  0  0  0  0  0  0  0  0
   55.7590  138.6660   93.4870 C   0  0  0  0  0  0  0  0  0  0  0  0
   55.9050  137.8600   94.6260 C   0  0  0  0  0  0  0  0  0  0  0  0
   54.8450  137.6690   95.5170 C   0  0  0  0  0  0  0  0  0  0  0  0
   53.6100  138.2640   95.2660 C   0  0  0  0  0  0  0  0  0  0  0  0
   53.4340  139.0370   94.1190 C   0  0  0  0  0  0  0  0  0  0  0  0
   54.5000  139.2250   93.2310 C   0  0  0  0  0  0  0  0  0  0  0  0
   52.1610  139.6300   93.8460 C   0  0  0  0  0  0  0  0  0  0  0  0
   51.0920  140.1270   93.6150 C   0  0  0  0  0  0  0  0  0  0  0  0
   61.7970  137.9960   88.5420 O   0  0  0  0  0  0  0  0  0  0  0  0
   62.0760  136.9270   87.6350 C   0  0  0  0  0  0  0  0  0  0  0  0
   62.1470  137.4000   86.1790 C   0  0  0  0  0  0  0  0  0  0  0  0
   60.8810  137.3590   85.5080 O   0  0  0  0  0  0  0  0  0  0  0  0
   60.3950  138.6430   85.1380 C   0  0  0  0  0  0  0  0  0  0  0  0
   61.5451  135.8548   94.6260 H   0  0  0  0  0  0  0  0  0  0  0  0
   61.3065  137.3015   93.5883 H   0  0  0  0  0  0  0  0  0  0  0  0
   60.0846  135.9849   93.5883 H   0  0  0  0  0  0  0  0  0  0  0  0
   63.5210  136.2576   91.5991 H   0  0  0  0  0  0  0  0  0  0  0  0
   61.9401  136.3825   90.7175 H   0  0  0  0  0  0  0  0  0  0  0  0
   61.5512  137.9873   92.9624 H   0  0  0  0  0  0  0  0  0  0  0  0
   63.2525  138.3204   92.5211 H   0  0  0  0  0  0  0  0  0  0  0  0
   59.3359  137.4633   87.5117 H   0  0  0  0  0  0  0  0  0  0  0  0
   59.4279  138.8399   92.2856 H   0  0  0  0  0  0  0  0  0  0  0  0
   54.9596  137.3635   88.7851 H   0  0  0  0  0  0  0  0  0  0  0  0
   57.6870  139.2353   92.9426 H   0  0  0  0  0  0  0  0  0  0  0  0
   56.8702  137.3699   94.8213 H   0  0  0  0  0  0  0  0  0  0  0  0
   54.9855  137.0498   96.4152 H   0  0  0  0  0  0  0  0  0  0  0  0
   52.7768  138.1243   95.9705 H   0  0  0  0  0  0  0  0  0  0  0  0
   54.3468  139.8204   92.3188 H   0  0  0  0  0  0  0  0  0  0  0  0
   50.1131  140.5821   93.4035 H   0  0  0  0  0  0  0  0  0  0  0  0
   63.0414  136.4755   87.9073 H   0  0  0  0  0  0  0  0  0  0  0  0
   61.2549  136.1991   87.7116 H   0  0  0  0  0  0  0  0  0  0  0  0
   62.5158  138.4362   86.1660 H   0  0  0  0  0  0  0  0  0  0  0  0
   62.8212  136.7138   85.6456 H   0  0  0  0  0  0  0  0  0  0  0  0
   60.1741  139.2265   86.0440 H   0  0  0  0  0  0  0  0  0  0  0  0
   61.1574  139.1659   84.5419 H   0  0  0  0  0  0  0  0  0  0  0  0
   59.4775  138.5300   84.5419 H   0  0  0  0  0  0  0  0  0  0  0  0
  1  2  1  0
  2  3  1  0
  3  4  1  0
  4  5  1  0
  5  6  1  0
  6  7  2  0
  7  8  1  0
  8  9  2  0
  9 10  1  0
 10 11  2  0
 10 12  1  0
 12 13  2  0
 13 14  1  0
 14 15  2  0
 12 16  1  0
 16 17  1  0
 17 18  2  0
 18 19  1  0
 19 20  2  0
 20 21  1  0
 21 22  2  0
 21 23  1  0
 23 24  3  0
  7 25  1  0
 25 26  1  0
 26 27  1  0
 27 28  1  0
 28 29  1  0
 11  6  1  0
 15  9  1  0
 22 17  1  0
  1 30  1  0
  1 31  1  0
  1 32  1  0
  3 33  1  0
  3 34  1  0
  4 35  1  0
  4 36  1  0
  8 37  1  0
 11 38  1  0
 14 39  1  0
 16 40  1  0
 18 41  1  0
 19 42  1  0
 20 43  1  0
 22 44  1  0
 24 45  1  0
 26 46  1  0
 26 47  1  0
 27 48  1  0
 27 49  1  0
 29 50  1  0
 29 51  1  0
 29 52  1  0
M  END
