
     RDKit          3D

 53 54  0  0  0  0  0  0  0  0999 V2000
   49.5750  138.8750   91.2640 C   0  0  0  0  0  0  0  0  0  0  0  0
   50.5490  139.5480   90.3120 C   0  0  0  0  0  0  0  0  0  0  0  0
   51.8960  139.3490   90.7650 O   0  0  0  0  0  0  0  0  0  0  0  0
   52.3740  140.3000   91.6070 C   0  0  0  0  0  0  0  0  0  0  0  0
   52.0430  141.4740   91.6360 O   0  0  0  0  0  0  0  0  0  0  0  0
   53.4350  139.7260   92.4560 C   0  0  0  0  0  0  0  0  0  0  0  0
   54.7490  139.8590   92.1730 C   0  0  0  0  0  0  0  0  0  0  0  0
   55.6920  139.2630   93.0050 N   0  0  0  0  0  0  0  0  0  0  0  0
   55.3800  138.3860   94.0310 C   0  0  0  0  0  0  0  0  0  0  0  0
   54.0870  138.2150   94.3880 C   0  0  0  0  0  0  0  0  0  0  0  0
   52.9490  138.9370   93.6680 C   0  0  0  0  0  0  0  0  0  0  0  0
   52.1840  139.8530   94.6350 C   0  0  0  0  0  0  0  0  0  0  0  0
   52.8060  141.0300   95.1070 C   0  0  0  0  0  0  0  0  0  0  0  0
   52.1480  141.8990   95.9770 C   0  0  0  0  0  0  0  0  0  0  0  0
   50.8530  141.6130   96.3960 C   0  0  0  0  0  0  0  0  0  0  0  0
   50.2190  140.4570   95.9450 C   0  0  0  0  0  0  0  0  0  0  0  0
   50.8750  139.5810   95.0710 C   0  0  0  0  0  0  0  0  0  0  0  0
   49.9980  138.1790   94.5750 Cl  0  0  0  0  0  0  0  0  0  0  0  0
   53.6610  137.2900   95.4560 C   0  0  0  0  0  0  0  0  0  0  0  0
   52.9270  136.3330   95.2690 O   0  0  0  0  0  0  0  0  0  0  0  0
   54.1520  137.7060   96.6490 O   0  0  0  0  0  0  0  0  0  0  0  0
   53.1740  138.3180   97.4900 C   0  0  0  0  0  0  0  0  0  0  0  0
   56.5450  137.6490   94.6400 C   0  0  0  0  0  0  0  0  0  0  0  0
   55.2910  140.5790   90.9520 C   0  0  0  0  0  0  0  0  0  0  0  0
   56.5410  139.9770   90.5800 O   0  0  0  0  0  0  0  0  0  0  0  0
   57.5900  140.9450   90.5280 C   0  0  0  0  0  0  0  0  0  0  0  0
   58.9020  140.2790   90.9560 C   0  0  0  0  0  0  0  0  0  0  0  0
   58.7020  139.0410   91.7070 N   0  0  0  0  0  0  0  0  0  0  0  0
   49.8746  139.0820   92.3020 H   0  0  0  0  0  0  0  0  0  0  0  0
   48.5620  139.2668   91.0897 H   0  0  0  0  0  0  0  0  0  0  0  0
   49.5831  137.7889   91.0897 H   0  0  0  0  0  0  0  0  0  0  0  0
   50.4348  139.1143   89.3076 H   0  0  0  0  0  0  0  0  0  0  0  0
   50.3349  140.6265   90.2797 H   0  0  0  0  0  0  0  0  0  0  0  0
   56.6847  139.4882   92.8480 H   0  0  0  0  0  0  0  0  0  0  0  0
   52.2641  138.1604   93.2968 H   0  0  0  0  0  0  0  0  0  0  0  0
   53.8300  141.2660   94.7818 H   0  0  0  0  0  0  0  0  0  0  0  0
   52.6528  142.8098   96.3315 H   0  0  0  0  0  0  0  0  0  0  0  0
   50.3310  142.2971   97.0812 H   0  0  0  0  0  0  0  0  0  0  0  0
   49.1953  140.2307   96.2780 H   0  0  0  0  0  0  0  0  0  0  0  0
   53.4407  138.1511   98.5440 H   0  0  0  0  0  0  0  0  0  0  0  0
   53.1403  139.3986   97.2870 H   0  0  0  0  0  0  0  0  0  0  0  0
   52.1875  137.8758   97.2870 H   0  0  0  0  0  0  0  0  0  0  0  0
   56.4743  137.6937   95.7368 H   0  0  0  0  0  0  0  0  0  0  0  0
   56.5254  136.5986   94.3138 H   0  0  0  0  0  0  0  0  0  0  0  0
   57.4857  138.1167   94.3138 H   0  0  0  0  0  0  0  0  0  0  0  0
   54.5753  140.4896   90.1214 H   0  0  0  0  0  0  0  0  0  0  0  0
   55.4413  141.6444   91.1809 H   0  0  0  0  0  0  0  0  0  0  0  0
   57.6882  141.3283   89.5016 H   0  0  0  0  0  0  0  0  0  0  0  0
   57.3589  141.7815   91.2040 H   0  0  0  0  0  0  0  0  0  0  0  0
   59.4880  140.0496   90.0538 H   0  0  0  0  0  0  0  0  0  0  0  0
   59.4241  140.9832   91.6204 H   0  0  0  0  0  0  0  0  0  0  0  0
   58.7346  139.2428   92.7165 H   0  0  0  0  0  0  0  0  0  0  0  0
   57.7850  138.6381   91.4668 H   0  0  0  0  0  0  0  0  0  0  0  0
  1  2  1  0
  2  3  1  0
  3  4  1  0
  4  5  2  0
  4  6  1  0
  6  7  2  0
  7  8  1  0
  8  9  1  0
  9 10  2  0
 10 11  1  0
 11 12  1  0
 12 13  2  0
 13 14  1  0
 14 15  2  0
 15 16  1  0
 16 17  2  0
 17 18  1  0
 10 19  1  0
 19 20  2  0
 19 21  1  0
 21 22  1  0
  9 23  1  0
  7 24  1  0
 24 25  1  0
 25 26  1  0
 26 27  1  0
 27 28  1  0
 11  6  1  0
 17 12  1  0
  1 29  1  0
  1 30  1  0
  1 31  1  0
  2 32  1  0
  2 33  1  0
  8 34  1  0
 11 35  1  0
 13 36  1  0
 14 37  1  0
 15 38  1  0
 16 39  1  0
 22 40  1  0
 22 41  1  0
 22 42  1  0
 23 43  1  0
 23 44  1  0
 23 45  1  0
 24 46  1  0
 24 47  1  0
 26 48  1  0
 26 49  1  0
 27 50  1  0
 27 51  1  0
 28 52  1  0
 28 53  1  0
M  END
