
     RDKit          3D

 41 43  0  0  0  0  0  0  0  0999 V2000
 -114.1730   57.5250   28.2020 C   0  0  0  0  0  0  0  0  0  0  0  0
 -113.0590   58.0370   28.9230 O   0  0  0  0  0  0  0  0  0  0  0  0
 -112.9540   59.3960   29.0590 C   0  0  0  0  0  0  0  0  0  0  0  0
 -112.7820   59.9020   30.3580 C   0  0  0  0  0  0  0  0  0  0  0  0
 -112.5950   61.2820   30.5200 C   0  0  0  0  0  0  0  0  0  0  0  0
 -112.6060   62.1500   29.4730 N   0  0  0  0  0  0  0  0  0  0  0  0
 -112.8140   61.6390   28.2450 C   0  0  0  0  0  0  0  0  0  0  0  0
 -112.9870   60.2900   27.9890 C   0  0  0  0  0  0  0  0  0  0  0  0
 -112.3540   61.8850   31.8810 C   0  0  0  0  0  0  0  0  0  0  0  0
 -113.8300   62.7180   32.5410 S   0  0  0  0  0  0  0  0  0  0  0  0
 -115.0700   62.0240   32.0510 O   0  0  0  0  0  0  0  0  0  0  0  0
 -113.6970   64.1970   31.5230 C   0  0  0  0  0  0  0  0  0  0  0  0
 -114.6810   64.7500   30.8490 N   0  0  0  0  0  0  0  0  0  0  0  0
 -114.1190   65.8400   30.2300 C   0  0  0  0  0  0  0  0  0  0  0  0
 -112.7680   65.9500   30.5400 C   0  0  0  0  0  0  0  0  0  0  0  0
 -112.5250   64.8850   31.3650 N   0  0  0  0  0  0  0  0  0  0  0  0
 -111.9520   66.9710   30.0480 C   0  0  0  0  0  0  0  0  0  0  0  0
 -112.5490   67.9250   29.2100 C   0  0  0  0  0  0  0  0  0  0  0  0
 -113.9030   67.8260   28.8700 C   0  0  0  0  0  0  0  0  0  0  0  0
 -114.7020   66.7880   29.3780 C   0  0  0  0  0  0  0  0  0  0  0  0
 -111.6890   68.8940   28.7690 O   0  0  0  0  0  0  0  0  0  0  0  0
 -112.2740   70.1140   28.3440 C   0  0  0  0  0  0  0  0  0  0  0  0
 -112.6880   70.7720   29.4570 F   0  0  0  0  0  0  0  0  0  0  0  0
 -111.3220   70.8890   27.7680 F   0  0  0  0  0  0  0  0  0  0  0  0
 -112.7050   59.1280   31.4880 O   0  0  0  0  0  0  0  0  0  0  0  0
 -113.9680   58.6960   31.9930 C   0  0  0  0  0  0  0  0  0  0  0  0
 -114.9379   57.1735   28.9101 H   0  0  0  0  0  0  0  0  0  0  0  0
 -114.5964   58.3189   27.5691 H   0  0  0  0  0  0  0  0  0  0  0  0
 -113.8463   56.6867   27.5691 H   0  0  0  0  0  0  0  0  0  0  0  0
 -112.8485   62.3354   27.3942 H   0  0  0  0  0  0  0  0  0  0  0  0
 -113.1473   59.9300   26.9620 H   0  0  0  0  0  0  0  0  0  0  0  0
 -112.0602   61.0840   32.5753 H   0  0  0  0  0  0  0  0  0  0  0  0
 -111.5606   62.6399   31.7778 H   0  0  0  0  0  0  0  0  0  0  0  0
 -111.6191   64.6440   31.7918 H   0  0  0  0  0  0  0  0  0  0  0  0
 -110.8843   67.0251   30.3070 H   0  0  0  0  0  0  0  0  0  0  0  0
 -114.3482   68.5719   28.1951 H   0  0  0  0  0  0  0  0  0  0  0  0
 -115.7671   66.7205   29.1116 H   0  0  0  0  0  0  0  0  0  0  0  0
 -113.0951   69.9153   27.6395 H   0  0  0  0  0  0  0  0  0  0  0  0
 -113.9453   58.7038   33.0927 H   0  0  0  0  0  0  0  0  0  0  0  0
 -114.7568   59.3754   31.6377 H   0  0  0  0  0  0  0  0  0  0  0  0
 -114.1754   57.6758   31.6377 H   0  0  0  0  0  0  0  0  0  0  0  0
  1  2  1  0
  2  3  1  0
  3  4  2  0
  4  5  1  0
  5  6  2  0
  6  7  1  0
  7  8  2  0
  5  9  1  0
  9 10  1  0
 10 11  2  0
 10 12  1  0
 12 13  2  0
 13 14  1  0
 14 15  2  0
 15 16  1  0
 15 17  1  0
 17 18  2  0
 18 19  1  0
 19 20  2  0
 18 21  1  0
 21 22  1  0
 22 23  1  0
 22 24  1  0
  4 25  1  0
 25 26  1  0
  8  3  1  0
 16 12  1  0
 20 14  1  0
  1 27  1  0
  1 28  1  0
  1 29  1  0
  7 30  1  0
  8 31  1  0
  9 32  1  0
  9 33  1  0
 16 34  1  0
 17 35  1  0
 19 36  1  0
 20 37  1  0
 22 38  1  0
 26 39  1  0
 26 40  1  0
 26 41  1  0
M  END
