
     RDKit          3D

 45 48  0  0  0  0  0  0  0  0999 V2000
 -111.5670   66.4030   39.3290 C   0  0  0  0  0  0  0  0  0  0  0  0
 -112.2570   67.6000   39.9890 C   0  0  0  0  0  0  0  0  0  0  0  0
 -111.5900   67.9690   41.3290 C   0  0  0  0  0  0  0  0  0  0  0  0
 -110.0770   68.1950   41.1660 C   0  0  0  0  0  0  0  0  0  0  0  0
 -109.3970   67.0000   40.4950 C   0  0  0  0  0  0  0  0  0  0  0  0
 -110.0600   66.6550   39.1500 C   0  0  0  0  0  0  0  0  0  0  0  0
 -109.3690   65.4860   38.4670 C   0  0  0  0  0  0  0  0  0  0  0  0
 -107.9760   65.3190   38.5160 C   0  0  0  0  0  0  0  0  0  0  0  0
 -107.3660   64.2360   37.8770 C   0  0  0  0  0  0  0  0  0  0  0  0
 -108.1430   63.3100   37.1870 C   0  0  0  0  0  0  0  0  0  0  0  0
 -109.5250   63.4590   37.1280 C   0  0  0  0  0  0  0  0  0  0  0  0
 -110.1360   64.5420   37.7650 C   0  0  0  0  0  0  0  0  0  0  0  0
 -107.3900   61.9780   36.4030 Cl  0  0  0  0  0  0  0  0  0  0  0  0
 -112.2770   69.1270   42.0450 C   0  0  0  0  0  0  0  0  0  0  0  0
 -112.8210   69.0710   43.2800 C   0  0  0  0  0  0  0  0  0  0  0  0
 -113.5170   70.2140   43.9140 C   0  0  0  0  0  0  0  0  0  0  0  0
 -113.9780   70.1450   45.2400 C   0  0  0  0  0  0  0  0  0  0  0  0
 -114.6610   71.2150   45.8280 C   0  0  0  0  0  0  0  0  0  0  0  0
 -114.9010   72.3760   45.1000 C   0  0  0  0  0  0  0  0  0  0  0  0
 -114.4540   72.4670   43.7850 C   0  0  0  0  0  0  0  0  0  0  0  0
 -113.7640   71.3930   43.2060 C   0  0  0  0  0  0  0  0  0  0  0  0
 -113.2910   71.5010   41.8220 C   0  0  0  0  0  0  0  0  0  0  0  0
 -113.6390   72.4210   41.0950 O   0  0  0  0  0  0  0  0  0  0  0  0
 -112.3400   70.4340   41.3160 C   0  0  0  0  0  0  0  0  0  0  0  0
 -111.6450   70.6690   40.3370 O   0  0  0  0  0  0  0  0  0  0  0  0
 -112.7800   67.9460   44.0820 O   0  0  0  0  0  0  0  0  0  0  0  0
 -111.7090   65.5142   39.9614 H   0  0  0  0  0  0  0  0  0  0  0  0
 -112.0136   66.2494   38.3355 H   0  0  0  0  0  0  0  0  0  0  0  0
 -112.1991   68.4643   39.3110 H   0  0  0  0  0  0  0  0  0  0  0  0
 -113.3040   67.3278   40.1883 H   0  0  0  0  0  0  0  0  0  0  0  0
 -111.7209   67.0987   41.9889 H   0  0  0  0  0  0  0  0  0  0  0  0
 -109.9145   69.0908   40.5487 H   0  0  0  0  0  0  0  0  0  0  0  0
 -109.6388   68.3222   42.1669 H   0  0  0  0  0  0  0  0  0  0  0  0
 -108.3387   67.2433   40.3197 H   0  0  0  0  0  0  0  0  0  0  0  0
 -109.4941   66.1296   41.1606 H   0  0  0  0  0  0  0  0  0  0  0  0
 -109.9445   67.5244   38.4861 H   0  0  0  0  0  0  0  0  0  0  0  0
 -107.3588   66.0473   39.0624 H   0  0  0  0  0  0  0  0  0  0  0  0
 -106.2734   64.1156   37.9193 H   0  0  0  0  0  0  0  0  0  0  0  0
 -110.1355   62.7255   36.5809 H   0  0  0  0  0  0  0  0  0  0  0  0
 -111.2289   64.6564   37.7162 H   0  0  0  0  0  0  0  0  0  0  0  0
 -113.7983   69.2321   45.8267 H   0  0  0  0  0  0  0  0  0  0  0  0
 -115.0092   71.1382   46.8686 H   0  0  0  0  0  0  0  0  0  0  0  0
 -115.4405   73.2166   45.5607 H   0  0  0  0  0  0  0  0  0  0  0  0
 -114.6419   73.3801   43.2011 H   0  0  0  0  0  0  0  0  0  0  0  0
 -113.1964   67.9628   44.9800 H   0  0  0  0  0  0  0  0  0  0  0  0
  1  2  1  0
  2  3  1  0
  3  4  1  0
  4  5  1  0
  5  6  1  0
  6  7  1  0
  7  8  2  0
  8  9  1  0
  9 10  2  0
 10 11  1  0
 11 12  2  0
 10 13  1  0
  3 14  1  0
 14 15  2  0
 15 16  1  0
 16 17  2  0
 17 18  1  0
 18 19  2  0
 19 20  1  0
 20 21  2  0
 21 22  1  0
 22 23  2  0
 22 24  1  0
 24 25  2  0
 15 26  1  0
  6  1  1  0
 12  7  1  0
 24 14  1  0
 21 16  1  0
  1 27  1  0
  1 28  1  0
  2 29  1  0
  2 30  1  0
  3 31  1  0
  4 32  1  0
  4 33  1  0
  5 34  1  0
  5 35  1  0
  6 36  1  0
  8 37  1  0
  9 38  1  0
 11 39  1  0
 12 40  1  0
 17 41  1  0
 18 42  1  0
 19 43  1  0
 20 44  1  0
 26 45  1  0
M  END
