
     RDKit          3D

 52 54  0  0  0  0  0  0  0  0999 V2000
 -125.2260   50.6580   35.9770 C   0  0  0  0  0  0  0  0  0  0  0  0
 -126.5220   50.9990   36.7490 C   0  0  0  0  0  0  0  0  0  0  0  0
 -126.3660   52.0500   37.7650 N   0  0  0  0  0  0  0  0  0  0  0  0
 -125.2090   52.9210   37.4860 C   0  0  0  0  0  0  0  0  0  0  0  0
 -124.9570   53.0870   35.9710 C   0  0  0  0  0  0  0  0  0  0  0  0
 -124.5870   51.8160   35.3160 N   0  0  0  0  0  0  0  0  0  0  0  0
 -124.8430   51.8390   33.8670 C   0  0  0  0  0  0  0  0  0  0  0  0
 -126.2590   52.2970   33.4470 C   0  0  0  0  0  0  0  0  0  0  0  0
 -126.9820   51.3650   32.6410 O   0  0  0  0  0  0  0  0  0  0  0  0
 -128.3920   51.5410   32.6780 C   0  0  0  0  0  0  0  0  0  0  0  0
 -128.9600   51.3370   34.0750 C   0  0  0  0  0  0  0  0  0  0  0  0
 -129.4310   52.1700   34.8310 O   0  0  0  0  0  0  0  0  0  0  0  0
 -128.8890   50.0430   34.4630 O   0  0  0  0  0  0  0  0  0  0  0  0
 -126.4560   51.6300   39.1840 C   0  0  0  0  0  0  0  0  0  0  0  0
 -127.4420   52.4550   40.0280 C   0  0  0  0  0  0  0  0  0  0  0  0
 -127.9830   51.9080   41.2050 C   0  0  0  0  0  0  0  0  0  0  0  0
 -128.8840   52.6330   41.9880 C   0  0  0  0  0  0  0  0  0  0  0  0
 -129.2550   53.9210   41.6120 C   0  0  0  0  0  0  0  0  0  0  0  0
 -128.7240   54.4860   40.4560 C   0  0  0  0  0  0  0  0  0  0  0  0
 -127.8260   53.7610   39.6710 C   0  0  0  0  0  0  0  0  0  0  0  0
 -125.0800   51.4100   39.8540 C   0  0  0  0  0  0  0  0  0  0  0  0
 -124.6130   52.3280   40.8170 C   0  0  0  0  0  0  0  0  0  0  0  0
 -123.3890   52.1380   41.4670 C   0  0  0  0  0  0  0  0  0  0  0  0
 -122.6210   51.0160   41.1780 C   0  0  0  0  0  0  0  0  0  0  0  0
 -123.0710   50.0780   40.2550 C   0  0  0  0  0  0  0  0  0  0  0  0
 -124.2960   50.2700   39.6060 C   0  0  0  0  0  0  0  0  0  0  0  0
 -121.1150   50.7800   41.9750 Cl  0  0  0  0  0  0  0  0  0  0  0  0
 -124.5056   50.2266   36.6875 H   0  0  0  0  0  0  0  0  0  0  0  0
 -125.5112   49.9580   35.1779 H   0  0  0  0  0  0  0  0  0  0  0  0
 -127.2774   51.3326   36.0223 H   0  0  0  0  0  0  0  0  0  0  0  0
 -126.8168   50.0853   37.2858 H   0  0  0  0  0  0  0  0  0  0  0  0
 -125.3974   53.9120   37.9247 H   0  0  0  0  0  0  0  0  0  0  0  0
 -124.3178   52.4512   37.9276 H   0  0  0  0  0  0  0  0  0  0  0  0
 -125.8740   53.4720   35.5011 H   0  0  0  0  0  0  0  0  0  0  0  0
 -124.1152   53.7841   35.8469 H   0  0  0  0  0  0  0  0  0  0  0  0
 -124.1152   52.5225   33.4053 H   0  0  0  0  0  0  0  0  0  0  0  0
 -124.7504   50.7966   33.5280 H   0  0  0  0  0  0  0  0  0  0  0  0
 -126.8426   52.4821   34.3609 H   0  0  0  0  0  0  0  0  0  0  0  0
 -126.1198   53.1952   32.8274 H   0  0  0  0  0  0  0  0  0  0  0  0
 -128.6305   52.5616   32.3441 H   0  0  0  0  0  0  0  0  0  0  0  0
 -128.8440   50.7875   32.0162 H   0  0  0  0  0  0  0  0  0  0  0  0
 -129.2258   49.7743   35.3543 H   0  0  0  0  0  0  0  0  0  0  0  0
 -126.9129   50.6300   39.1471 H   0  0  0  0  0  0  0  0  0  0  0  0
 -127.6920   50.8932   41.5139 H   0  0  0  0  0  0  0  0  0  0  0  0
 -129.3008   52.1859   42.9025 H   0  0  0  0  0  0  0  0  0  0  0  0
 -129.9665   54.4912   42.2273 H   0  0  0  0  0  0  0  0  0  0  0  0
 -129.0125   55.5056   40.1606 H   0  0  0  0  0  0  0  0  0  0  0  0
 -127.4122   54.2173   38.7596 H   0  0  0  0  0  0  0  0  0  0  0  0
 -125.2227   53.2102   41.0618 H   0  0  0  0  0  0  0  0  0  0  0  0
 -123.0355   52.8739   42.2042 H   0  0  0  0  0  0  0  0  0  0  0  0
 -122.4650   49.1866   40.0354 H   0  0  0  0  0  0  0  0  0  0  0  0
 -124.6516   49.5153   38.8891 H   0  0  0  0  0  0  0  0  0  0  0  0
  1  2  1  0
  2  3  1  0
  3  4  1  0
  4  5  1  0
  5  6  1  0
  6  7  1  0
  7  8  1  0
  8  9  1  0
  9 10  1  0
 10 11  1  0
 11 12  2  0
 11 13  1  0
  3 14  1  0
 14 15  1  0
 15 16  2  0
 16 17  1  0
 17 18  2  0
 18 19  1  0
 19 20  2  0
 14 21  1  0
 21 22  2  0
 22 23  1  0
 23 24  2  0
 24 25  1  0
 25 26  2  0
 24 27  1  0
  6  1  1  0
 20 15  1  0
 26 21  1  0
  1 28  1  0
  1 29  1  0
  2 30  1  0
  2 31  1  0
  4 32  1  0
  4 33  1  0
  5 34  1  0
  5 35  1  0
  7 36  1  0
  7 37  1  0
  8 38  1  0
  8 39  1  0
 10 40  1  0
 10 41  1  0
 13 42  1  0
 14 43  1  0
 16 44  1  0
 17 45  1  0
 18 46  1  0
 19 47  1  0
 20 48  1  0
 22 49  1  0
 23 50  1  0
 25 51  1  0
 26 52  1  0
M  END
