
     RDKit          3D

 43 45  0  0  0  0  0  0  0  0999 V2000
  -20.3660   73.3090   18.5680 C   0  0  0  0  0  0  0  0  0  0  0  0
  -19.7850   72.7900   17.2910 C   0  0  0  0  0  0  0  0  0  0  0  0
  -18.6760   71.9630   17.3070 C   0  0  0  0  0  0  0  0  0  0  0  0
  -18.0890   71.4600   16.2020 N   0  0  0  0  0  0  0  0  0  0  0  0
  -18.6350   71.7510   14.9920 C   0  0  0  0  0  0  0  0  0  0  0  0
  -19.7560   72.5830   14.8570 C   0  0  0  0  0  0  0  0  0  0  0  0
  -20.2870   73.1370   16.0330 C   0  0  0  0  0  0  0  0  0  0  0  0
  -21.3690   73.9820   15.9620 O   0  0  0  0  0  0  0  0  0  0  0  0
  -22.5860   73.2340   15.9980 C   0  0  0  0  0  0  0  0  0  0  0  0
  -20.3380   72.9200   13.5120 C   0  0  0  0  0  0  0  0  0  0  0  0
  -17.9460   71.1200   13.8080 C   0  0  0  0  0  0  0  0  0  0  0  0
  -17.6600   69.3410   14.0680 S   0  0  0  0  0  0  0  0  0  0  0  0
  -17.5890   68.6410   12.7400 O   0  0  0  0  0  0  0  0  0  0  0  0
  -19.3060   68.9620   14.6930 C   0  0  0  0  0  0  0  0  0  0  0  0
  -20.4250   69.0910   14.0130 N   0  0  0  0  0  0  0  0  0  0  0  0
  -21.4120   68.6960   14.8830 C   0  0  0  0  0  0  0  0  0  0  0  0
  -20.8790   68.3190   16.1100 C   0  0  0  0  0  0  0  0  0  0  0  0
  -19.5300   68.5010   15.9610 N   0  0  0  0  0  0  0  0  0  0  0  0
  -21.6590   67.8700   17.1770 C   0  0  0  0  0  0  0  0  0  0  0  0
  -23.0460   67.8060   16.9790 C   0  0  0  0  0  0  0  0  0  0  0  0
  -23.6080   68.1810   15.7530 C   0  0  0  0  0  0  0  0  0  0  0  0
  -22.7990   68.6280   14.6950 C   0  0  0  0  0  0  0  0  0  0  0  0
  -23.7430   67.3570   18.0710 O   0  0  0  0  0  0  0  0  0  0  0  0
  -23.6700   65.9660   18.3580 C   0  0  0  0  0  0  0  0  0  0  0  0
  -19.8481   72.8464   19.4211 H   0  0  0  0  0  0  0  0  0  0  0  0
  -20.2402   74.4009   18.6110 H   0  0  0  0  0  0  0  0  0  0  0  0
  -21.4369   73.0613   18.6110 H   0  0  0  0  0  0  0  0  0  0  0  0
  -18.2453   71.6987   18.2841 H   0  0  0  0  0  0  0  0  0  0  0  0
  -22.8760   73.0557   17.0440 H   0  0  0  0  0  0  0  0  0  0  0  0
  -23.3797   73.8004   15.4889 H   0  0  0  0  0  0  0  0  0  0  0  0
  -22.4391   72.2701   15.4889 H   0  0  0  0  0  0  0  0  0  0  0  0
  -21.2826   73.4670   13.6479 H   0  0  0  0  0  0  0  0  0  0  0  0
  -19.6285   73.5470   12.9521 H   0  0  0  0  0  0  0  0  0  0  0  0
  -20.5286   71.9925   12.9521 H   0  0  0  0  0  0  0  0  0  0  0  0
  -18.5755   71.2536   12.9159 H   0  0  0  0  0  0  0  0  0  0  0  0
  -16.9697   71.6097   13.6772 H   0  0  0  0  0  0  0  0  0  0  0  0
  -18.8114   68.3224   16.6770 H   0  0  0  0  0  0  0  0  0  0  0  0
  -21.2040   67.5780   18.1350 H   0  0  0  0  0  0  0  0  0  0  0  0
  -24.6980   68.1249   15.6161 H   0  0  0  0  0  0  0  0  0  0  0  0
  -23.2474   68.9201   13.7339 H   0  0  0  0  0  0  0  0  0  0  0  0
  -23.6621   65.8164   19.4477 H   0  0  0  0  0  0  0  0  0  0  0  0
  -24.5426   65.4558   17.9241 H   0  0  0  0  0  0  0  0  0  0  0  0
  -22.7488   65.5499   17.9241 H   0  0  0  0  0  0  0  0  0  0  0  0
  1  2  1  0
  2  3  2  0
  3  4  1  0
  4  5  2  0
  5  6  1  0
  6  7  2  0
  7  8  1  0
  8  9  1  0
  6 10  1  0
  5 11  1  0
 11 12  1  0
 12 13  2  0
 12 14  1  0
 14 15  2  0
 15 16  1  0
 16 17  2  0
 17 18  1  0
 17 19  1  0
 19 20  2  0
 20 21  1  0
 21 22  2  0
 20 23  1  0
 23 24  1  0
  7  2  1  0
 18 14  1  0
 22 16  1  0
  1 25  1  0
  1 26  1  0
  1 27  1  0
  3 28  1  0
  9 29  1  0
  9 30  1  0
  9 31  1  0
 10 32  1  0
 10 33  1  0
 10 34  1  0
 11 35  1  0
 11 36  1  0
 18 37  1  0
 19 38  1  0
 21 39  1  0
 22 40  1  0
 24 41  1  0
 24 42  1  0
 24 43  1  0
M  END
