
     RDKit          3D

 31 32  0  0  0  0  0  0  0  0999 V2000
   -4.9020    4.6220   16.3340 C   0  0  0  0  0  0  0  0  0  0  0  0
   -4.1000    3.4520   15.8210 C   0  0  1  0  0  0  0  0  0  0  0  0
   -3.7450    2.6970   17.1020 C   0  0  2  0  0  0  0  0  0  0  0  0
   -4.7370    3.0510   18.1020 O   0  0  0  0  0  0  0  0  0  0  0  0
   -5.6480    3.9920   17.5050 C   0  0  1  0  0  0  0  0  0  0  0  0
   -6.1040    4.9780   18.4800 N   0  0  0  0  0  0  0  0  0  0  0  0
   -5.6650    6.2890   18.4520 C   0  0  0  0  0  0  0  0  0  0  0  0
   -6.0920    7.2100   19.3250 C   0  0  0  0  0  0  0  0  0  0  0  0
   -7.0690    6.8060   20.3430 C   0  0  0  0  0  0  0  0  0  0  0  0
   -7.5250    7.5870   21.1680 O   0  0  0  0  0  0  0  0  0  0  0  0
   -7.4540    5.4940   20.3110 N   0  0  0  0  0  0  0  0  0  0  0  0
   -7.0450    4.5480   19.4080 C   0  0  0  0  0  0  0  0  0  0  0  0
   -7.5140    3.4130   19.4390 O   0  0  0  0  0  0  0  0  0  0  0  0
   -5.6690    8.6280   19.3640 C   0  0  0  0  0  0  0  0  0  0  0  0
   -5.1390    8.9860   20.5590 F   0  0  0  0  0  0  0  0  0  0  0  0
   -4.7050    8.8840   18.4350 F   0  0  0  0  0  0  0  0  0  0  0  0
   -6.6840    9.4840   19.0880 F   0  0  0  0  0  0  0  0  0  0  0  0
   -2.3810    3.1030   17.6650 C   0  0  0  0  0  0  0  0  0  0  0  0
   -2.5530    3.8380   18.8760 O   0  0  0  0  0  0  0  0  0  0  0  0
   -4.9370    2.6390   14.9990 O   0  0  0  0  0  0  0  0  0  0  0  0
   -4.2483    5.4410   16.6684 H   0  0  0  0  0  0  0  0  0  0  0  0
   -5.5584    5.0800   15.5794 H   0  0  0  0  0  0  0  0  0  0  0  0
   -3.2214    3.7374   15.2238 H   0  0  0  0  0  0  0  0  0  0  0  0
   -3.7193    1.6225   16.8680 H   0  0  0  0  0  0  0  0  0  0  0  0
   -6.5648    3.4996   17.1487 H   0  0  0  0  0  0  0  0  0  0  0  0
   -4.9370    6.5866   17.6830 H   0  0  0  0  0  0  0  0  0  0  0  0
   -8.1167    5.1868   21.0372 H   0  0  0  0  0  0  0  0  0  0  0  0
   -1.7871    2.1997   17.8682 H   0  0  0  0  0  0  0  0  0  0  0  0
   -1.8599    3.7341   16.9300 H   0  0  0  0  0  0  0  0  0  0  0  0
   -2.4123    3.2367   19.6498 H   0  0  0  0  0  0  0  0  0  0  0  0
   -5.5161    2.0765   15.5720 H   0  0  0  0  0  0  0  0  0  0  0  0
  1  2  1  0
  2  3  1  0
  3  4  1  0
  4  5  1  0
  5  6  1  0
  6  7  1  0
  7  8  2  0
  8  9  1  0
  9 10  2  0
  9 11  1  0
 11 12  1  0
 12 13  2  0
  8 14  1  0
 14 15  1  0
 14 16  1  0
 14 17  1  0
  3 18  1  0
 18 19  1  0
  2 20  1  0
  5  1  1  0
 12  6  1  0
  1 21  1  0
  1 22  1  0
  2 23  1  6
  3 24  1  6
  5 25  1  6
  7 26  1  0
 11 27  1  0
 18 28  1  0
 18 29  1  0
 19 30  1  0
 20 31  1  0
M  END
