
     RDKit          3D

 26 28  0  0  0  0  0  0  0  0999 V2000
  -19.3140   67.3630   36.3160 C   0  0  0  0  0  0  0  0  0  0  0  0
  -19.4920   68.6450   35.6730 N   0  0  0  0  0  0  0  0  0  0  0  0
  -20.0220   69.7460   36.2930 C   0  0  0  0  0  0  0  0  0  0  0  0
  -20.1040   70.7750   35.4810 N   0  0  0  0  0  0  0  0  0  0  0  0
  -19.5980   70.3190   34.2770 C   0  0  0  0  0  0  0  0  0  0  0  0
  -19.1960   69.0000   34.3760 C   0  0  0  0  0  0  0  0  0  0  0  0
  -18.5280   67.8750   33.2350 S   0  0  0  0  0  0  0  0  0  0  0  0
  -20.0280   67.3730   32.4520 C   0  0  0  0  0  0  0  0  0  0  0  0
  -20.9340   66.6520   33.1440 N   0  0  0  0  0  0  0  0  0  0  0  0
  -22.0870   66.3260   32.5250 C   0  0  0  0  0  0  0  0  0  0  0  0
  -22.4630   66.6200   31.2750 N   0  0  0  0  0  0  0  0  0  0  0  0
  -21.5400   67.3310   30.6030 C   0  0  0  0  0  0  0  0  0  0  0  0
  -20.3330   67.7170   31.1520 C   0  0  0  0  0  0  0  0  0  0  0  0
  -19.6980   68.3990   30.1490 N   0  0  0  0  0  0  0  0  0  0  0  0
  -20.5280   68.3950   29.0620 C   0  0  0  0  0  0  0  0  0  0  0  0
  -21.6530   67.7610   29.3100 N   0  0  0  0  0  0  0  0  0  0  0  0
  -19.5410   71.2060   33.1360 N   0  0  0  0  0  0  0  0  0  0  0  0
  -20.2240   70.9140   32.1460 O   0  0  0  0  0  0  0  0  0  0  0  0
  -18.8140   72.2090   33.2290 O   0  0  0  0  0  0  0  0  0  0  0  0
  -19.3323   67.4948   37.4079 H   0  0  0  0  0  0  0  0  0  0  0  0
  -20.1267   66.6857   36.0147 H   0  0  0  0  0  0  0  0  0  0  0  0
  -18.3475   66.9327   36.0147 H   0  0  0  0  0  0  0  0  0  0  0  0
  -20.3409   69.7657   37.3456 H   0  0  0  0  0  0  0  0  0  0  0  0
  -22.8073   65.7469   33.1214 H   0  0  0  0  0  0  0  0  0  0  0  0
  -18.7664   68.8350   30.2031 H   0  0  0  0  0  0  0  0  0  0  0  0
  -20.2842   68.8649   28.0978 H   0  0  0  0  0  0  0  0  0  0  0  0
  1  2  1  0
  2  3  1  0
  3  4  2  0
  4  5  1  0
  5  6  2  0
  6  7  1  0
  7  8  1  0
  8  9  2  0
  9 10  1  0
 10 11  2  0
 11 12  1  0
 12 13  2  0
 13 14  1  0
 14 15  1  0
 15 16  2  0
  5 17  1  0
 17 18  2  0
 17 19  1  0
  6  2  1  0
 13  8  1  0
 16 12  1  0
  1 20  1  0
  1 21  1  0
  1 22  1  0
  3 23  1  0
 10 24  1  0
 14 25  1  0
 15 26  1  0
M  CHG  2  17   1  19  -1
M  END
