
     RDKit          3D

 76 79  0  0  0  0  0  0  0  0999 V2000
 -115.1730   64.9280   35.1160 C   0  0  0  0  0  0  0  0  0  0  0  0
 -113.7500   64.9020   34.5540 C   0  0  0  0  0  0  0  0  0  0  0  0
 -113.3910   66.1750   33.7930 C   0  0  0  0  0  0  0  0  0  0  0  0
 -113.4470   63.6210   33.7910 C   0  0  0  0  0  0  0  0  0  0  0  0
 -113.7480   63.3540   32.4500 C   0  0  0  0  0  0  0  0  0  0  0  0
 -113.1660   62.0840   32.1320 C   0  0  0  0  0  0  0  0  0  0  0  0
 -112.5400   61.5980   33.2730 C   0  0  0  0  0  0  0  0  0  0  0  0
 -112.8020   62.5000   34.2980 N   0  0  0  0  0  0  0  0  0  0  0  0
 -112.4770   62.2380   35.6990 C   0  0  0  0  0  0  0  0  0  0  0  0
 -111.1420   62.8540   36.1150 C   0  0  0  0  0  0  0  0  0  0  0  0
 -110.1470   61.8220   36.6620 C   0  0  2  0  0  0  0  0  0  0  0  0
 -109.2600   62.2650   37.8390 C   0  0  0  0  0  0  0  0  0  0  0  0
 -108.0060   63.0660   37.4600 C   0  0  2  0  0  0  0  0  0  0  0  0
 -107.5950   64.0950   38.5190 C   0  0  0  0  0  0  0  0  0  0  0  0
 -108.0620   65.4860   38.1940 C   0  0  0  0  0  0  0  0  0  0  0  0
 -109.2150   65.8850   38.1970 O   0  0  0  0  0  0  0  0  0  0  0  0
 -107.0480   66.2990   37.8470 O   0  0  0  0  0  0  0  0  0  0  0  0
 -108.1530   63.6890   36.1900 O   0  0  0  0  0  0  0  0  0  0  0  0
 -109.3240   61.3490   35.5960 O   0  0  0  0  0  0  0  0  0  0  0  0
 -111.8030   60.3420   33.4530 C   0  0  0  0  0  0  0  0  0  0  0  0
 -112.2760   59.3640   34.3390 C   0  0  0  0  0  0  0  0  0  0  0  0
 -111.5880   58.1580   34.4890 C   0  0  0  0  0  0  0  0  0  0  0  0
 -110.4350   57.9310   33.7500 C   0  0  0  0  0  0  0  0  0  0  0  0
 -109.9540   58.8860   32.8610 C   0  0  0  0  0  0  0  0  0  0  0  0
 -110.6410   60.0910   32.7080 C   0  0  0  0  0  0  0  0  0  0  0  0
 -109.7720   56.7760   33.8950 F   0  0  0  0  0  0  0  0  0  0  0  0
 -113.2110   61.3530   30.8720 C   0  0  0  0  0  0  0  0  0  0  0  0
 -112.4000   61.7540   29.8040 C   0  0  0  0  0  0  0  0  0  0  0  0
 -112.4060   61.0340   28.6080 C   0  0  0  0  0  0  0  0  0  0  0  0
 -113.2210   59.9110   28.4730 C   0  0  0  0  0  0  0  0  0  0  0  0
 -114.0320   59.5050   29.5330 C   0  0  0  0  0  0  0  0  0  0  0  0
 -114.0250   60.2220   30.7310 C   0  0  0  0  0  0  0  0  0  0  0  0
 -114.5190   64.2430   31.5600 C   0  0  0  0  0  0  0  0  0  0  0  0
 -115.7380   64.3260   31.6520 O   0  0  0  0  0  0  0  0  0  0  0  0
 -113.7270   64.9400   30.6680 N   0  0  0  0  0  0  0  0  0  0  0  0
 -114.1300   65.8380   29.6620 C   0  0  0  0  0  0  0  0  0  0  0  0
 -113.6510   67.1510   29.7550 C   0  0  0  0  0  0  0  0  0  0  0  0
 -114.0010   68.1080   28.7970 C   0  0  0  0  0  0  0  0  0  0  0  0
 -114.8330   67.7580   27.7380 C   0  0  0  0  0  0  0  0  0  0  0  0
 -115.3140   66.4550   27.6380 C   0  0  0  0  0  0  0  0  0  0  0  0
 -114.9630   65.4980   28.5950 C   0  0  0  0  0  0  0  0  0  0  0  0
 -115.1331   64.9273   36.2153 H   0  0  0  0  0  0  0  0  0  0  0  0
 -115.6880   65.8357   34.7684 H   0  0  0  0  0  0  0  0  0  0  0  0
 -115.7208   64.0397   34.7684 H   0  0  0  0  0  0  0  0  0  0  0  0
 -113.0719   64.8893   35.4200 H   0  0  0  0  0  0  0  0  0  0  0  0
 -113.1644   66.9787   34.5091 H   0  0  0  0  0  0  0  0  0  0  0  0
 -112.5105   65.9882   33.1607 H   0  0  0  0  0  0  0  0  0  0  0  0
 -114.2394   66.4758   33.1607 H   0  0  0  0  0  0  0  0  0  0  0  0
 -113.2724   62.6603   36.3306 H   0  0  0  0  0  0  0  0  0  0  0  0
 -112.3961   61.1483   35.8252 H   0  0  0  0  0  0  0  0  0  0  0  0
 -110.6931   63.3420   35.2373 H   0  0  0  0  0  0  0  0  0  0  0  0
 -111.3493   63.5703   36.9237 H   0  0  0  0  0  0  0  0  0  0  0  0
 -110.7815   61.0307   37.0878 H   0  0  0  0  0  0  0  0  0  0  0  0
 -109.8713   62.8894   38.5072 H   0  0  0  0  0  0  0  0  0  0  0  0
 -108.8953   61.3384   38.3064 H   0  0  0  0  0  0  0  0  0  0  0  0
 -107.1901   62.3304   37.4040 H   0  0  0  0  0  0  0  0  0  0  0  0
 -108.0274   63.7962   39.4853 H   0  0  0  0  0  0  0  0  0  0  0  0
 -106.4957   64.1147   38.5515 H   0  0  0  0  0  0  0  0  0  0  0  0
 -107.2293   67.2429   37.6099 H   0  0  0  0  0  0  0  0  0  0  0  0
 -108.3785   64.6448   36.3154 H   0  0  0  0  0  0  0  0  0  0  0  0
 -108.5294   60.8923   35.9703 H   0  0  0  0  0  0  0  0  0  0  0  0
 -113.1929   59.5473   34.9185 H   0  0  0  0  0  0  0  0  0  0  0  0
 -111.9572   57.3931   35.1880 H   0  0  0  0  0  0  0  0  0  0  0  0
 -109.0385   58.6930   32.2825 H   0  0  0  0  0  0  0  0  0  0  0  0
 -110.2700   60.8471   32.0004 H   0  0  0  0  0  0  0  0  0  0  0  0
 -111.7557   62.6395   29.9074 H   0  0  0  0  0  0  0  0  0  0  0  0
 -111.7671   61.3530   27.7713 H   0  0  0  0  0  0  0  0  0  0  0  0
 -113.2246   59.3447   27.5300 H   0  0  0  0  0  0  0  0  0  0  0  0
 -114.6767   58.6203   29.4250 H   0  0  0  0  0  0  0  0  0  0  0  0
 -114.6613   59.8973   31.5675 H   0  0  0  0  0  0  0  0  0  0  0  0
 -112.7124   64.7824   30.7496 H   0  0  0  0  0  0  0  0  0  0  0  0
 -112.9927   67.4324   30.5902 H   0  0  0  0  0  0  0  0  0  0  0  0
 -113.6190   69.1361   28.8806 H   0  0  0  0  0  0  0  0  0  0  0  0
 -115.1098   68.5080   26.9824 H   0  0  0  0  0  0  0  0  0  0  0  0
 -115.9731   66.1774   26.8023 H   0  0  0  0  0  0  0  0  0  0  0  0
 -115.3458   64.4706   28.5064 H   0  0  0  0  0  0  0  0  0  0  0  0
  1  2  1  0
  2  3  1  0
  2  4  1  0
  4  5  2  0
  5  6  1  0
  6  7  2  0
  7  8  1  0
  8  9  1  0
  9 10  1  0
 10 11  1  0
 11 12  1  0
 12 13  1  0
 13 14  1  0
 14 15  1  0
 15 16  2  0
 15 17  1  0
 13 18  1  0
 11 19  1  0
  7 20  1  0
 20 21  2  0
 21 22  1  0
 22 23  2  0
 23 24  1  0
 24 25  2  0
 23 26  1  0
  6 27  1  0
 27 28  2  0
 28 29  1  0
 29 30  2  0
 30 31  1  0
 31 32  2  0
  5 33  1  0
 33 34  2  0
 33 35  1  0
 35 36  1  0
 36 37  2  0
 37 38  1  0
 38 39  2  0
 39 40  1  0
 40 41  2  0
  8  4  1  0
 25 20  1  0
 32 27  1  0
 41 36  1  0
  1 42  1  0
  1 43  1  0
  1 44  1  0
  2 45  1  0
  3 46  1  0
  3 47  1  0
  3 48  1  0
  9 49  1  0
  9 50  1  0
 10 51  1  0
 10 52  1  0
 11 53  1  1
 12 54  1  0
 12 55  1  0
 13 56  1  6
 14 57  1  0
 14 58  1  0
 17 59  1  0
 18 60  1  0
 19 61  1  0
 21 62  1  0
 22 63  1  0
 24 64  1  0
 25 65  1  0
 28 66  1  0
 29 67  1  0
 30 68  1  0
 31 69  1  0
 32 70  1  0
 35 71  1  0
 37 72  1  0
 38 73  1  0
 39 74  1  0
 40 75  1  0
 41 76  1  0
M  END
