
     RDKit          3D

 85 88  0  0  0  0  0  0  0  0999 V2000
   -9.2920   -1.7080   10.3970 C   0  0  0  0  0  0  0  0  0  0  0  0
   -9.2630   -0.4630   11.2390 C   0  0  0  0  0  0  0  0  0  0  0  0
   -8.8220   -0.4920   12.5800 C   0  0  0  0  0  0  0  0  0  0  0  0
   -8.8820    0.6510   13.3900 C   0  0  0  0  0  0  0  0  0  0  0  0
   -9.3390    1.8560   12.8640 C   0  0  0  0  0  0  0  0  0  0  0  0
   -9.7250    1.9180   11.5290 C   0  0  0  0  0  0  0  0  0  0  0  0
   -9.6780    0.7760   10.7280 C   0  0  0  0  0  0  0  0  0  0  0  0
  -10.0630    0.9550    9.4280 O   0  0  0  0  0  0  0  0  0  0  0  0
   -8.2670   -1.7130   13.2140 C   0  0  0  0  0  0  0  0  0  0  0  0
   -8.9010   -2.3140   14.0730 O   0  0  0  0  0  0  0  0  0  0  0  0
   -6.9950   -2.0520   12.8110 N   0  0  0  0  0  0  0  0  0  0  0  0
   -6.2420   -3.1360   13.4700 C   0  0  1  0  0  0  0  0  0  0  0  0
   -6.6130   -4.4930   12.8340 C   0  0  0  0  0  0  0  0  0  0  0  0
   -7.5530   -5.6040   13.9620 S   0  0  0  0  0  0  0  0  0  0  0  0
   -7.4790   -7.1160   13.0250 C   0  0  0  0  0  0  0  0  0  0  0  0
   -8.4930   -8.0700   13.1410 C   0  0  0  0  0  0  0  0  0  0  0  0
   -8.4350   -9.2520   12.4010 C   0  0  0  0  0  0  0  0  0  0  0  0
   -7.3690   -9.4780   11.5300 C   0  0  0  0  0  0  0  0  0  0  0  0
   -6.3620   -8.5240   11.4000 C   0  0  0  0  0  0  0  0  0  0  0  0
   -6.4170   -7.3440   12.1440 C   0  0  0  0  0  0  0  0  0  0  0  0
   -4.7230   -2.8170   13.4000 C   0  0  1  0  0  0  0  0  0  0  0  0
   -4.3260   -1.6410   12.4720 C   0  0  0  0  0  0  0  0  0  0  0  0
   -2.9970   -1.7750   11.8520 N   0  0  0  0  0  0  0  0  0  0  0  0
   -2.9370   -2.8250   10.8270 C   0  0  0  0  0  0  0  0  0  0  0  0
   -2.4000   -4.1660   11.3480 C   0  0  1  0  0  0  0  0  0  0  0  0
   -2.4670   -5.2380   10.2460 C   0  0  0  0  0  0  0  0  0  0  0  0
   -1.6250   -6.4530   10.6090 C   0  0  0  0  0  0  0  0  0  0  0  0
   -0.1450   -6.0990   10.7600 C   0  0  0  0  0  0  0  0  0  0  0  0
    0.1050   -4.6190   11.0510 C   0  0  0  0  0  0  0  0  0  0  0  0
   -0.9810   -4.0160   11.9490 C   0  0  1  0  0  0  0  0  0  0  0  0
   -0.6570   -2.5530   12.2870 C   0  0  0  0  0  0  0  0  0  0  0  0
   -1.8970   -1.8420   12.8460 C   0  0  1  0  0  0  0  0  0  0  0  0
   -1.5140   -0.4110   13.2990 C   0  0  0  0  0  0  0  0  0  0  0  0
   -0.8570    0.3580   12.5990 O   0  0  0  0  0  0  0  0  0  0  0  0
   -1.9960   -0.0760   14.5510 N   0  0  0  0  0  0  0  0  0  0  0  0
   -1.8340    1.2420   15.1870 C   0  0  0  0  0  0  0  0  0  0  0  0
   -0.3510    1.6370   15.2770 C   0  0  0  0  0  0  0  0  0  0  0  0
   -2.3940    1.1490   16.6190 C   0  0  0  0  0  0  0  0  0  0  0  0
   -2.6240    2.3160   14.4230 C   0  0  0  0  0  0  0  0  0  0  0  0
   -4.1700   -2.6490   14.7120 O   0  0  0  0  0  0  0  0  0  0  0  0
   -9.3126   -2.5924   11.0508 H   0  0  0  0  0  0  0  0  0  0  0  0
  -10.1902   -1.7004    9.7621 H   0  0  0  0  0  0  0  0  0  0  0  0
   -8.3944   -1.7422    9.7621 H   0  0  0  0  0  0  0  0  0  0  0  0
   -8.5675    0.5953   14.4426 H   0  0  0  0  0  0  0  0  0  0  0  0
   -9.3945    2.7524   13.4991 H   0  0  0  0  0  0  0  0  0  0  0  0
  -10.0690    2.8718   11.1025 H   0  0  0  0  0  0  0  0  0  0  0  0
  -10.0558    0.1899    8.7998 H   0  0  0  0  0  0  0  0  0  0  0  0
   -6.5595   -1.5375   12.0322 H   0  0  0  0  0  0  0  0  0  0  0  0
   -6.5093   -3.2080   14.5346 H   0  0  0  0  0  0  0  0  0  0  0  0
   -7.2277   -4.3024   11.9420 H   0  0  0  0  0  0  0  0  0  0  0  0
   -5.6696   -5.0038   12.5909 H   0  0  0  0  0  0  0  0  0  0  0  0
   -9.3406   -7.8889   13.8183 H   0  0  0  0  0  0  0  0  0  0  0  0
   -9.2298  -10.0053   12.5046 H   0  0  0  0  0  0  0  0  0  0  0  0
   -7.3235  -10.4091   10.9460 H   0  0  0  0  0  0  0  0  0  0  0  0
   -5.5231   -8.7006   10.7107 H   0  0  0  0  0  0  0  0  0  0  0  0
   -5.6223   -6.5910   12.0369 H   0  0  0  0  0  0  0  0  0  0  0  0
   -4.2794   -3.7031   12.9225 H   0  0  0  0  0  0  0  0  0  0  0  0
   -5.0743   -1.5692   11.6689 H   0  0  0  0  0  0  0  0  0  0  0  0
   -4.2871   -0.7421   13.1048 H   0  0  0  0  0  0  0  0  0  0  0  0
   -3.9521   -2.9861   10.4350 H   0  0  0  0  0  0  0  0  0  0  0  0
   -2.2380   -2.4780   10.0518 H   0  0  0  0  0  0  0  0  0  0  0  0
   -3.0460   -4.5037   12.1718 H   0  0  0  0  0  0  0  0  0  0  0  0
   -3.5128   -5.5525   10.1143 H   0  0  0  0  0  0  0  0  0  0  0  0
   -2.0721   -4.8058    9.3148 H   0  0  0  0  0  0  0  0  0  0  0  0
   -1.9902   -6.8669   11.5605 H   0  0  0  0  0  0  0  0  0  0  0  0
   -1.7178   -7.1867    9.7947 H   0  0  0  0  0  0  0  0  0  0  0  0
    0.2712   -6.6912   11.5883 H   0  0  0  0  0  0  0  0  0  0  0  0
    0.3398   -6.3246    9.7987 H   0  0  0  0  0  0  0  0  0  0  0  0
    1.0781   -4.5158   11.5533 H   0  0  0  0  0  0  0  0  0  0  0  0
    0.0908   -4.0785   10.0930 H   0  0  0  0  0  0  0  0  0  0  0  0
   -0.9847   -4.5908   12.8869 H   0  0  0  0  0  0  0  0  0  0  0  0
    0.1459   -2.5245   13.0384 H   0  0  0  0  0  0  0  0  0  0  0  0
   -0.3363   -2.0389   11.3689 H   0  0  0  0  0  0  0  0  0  0  0  0
   -2.2602   -2.4270   13.7038 H   0  0  0  0  0  0  0  0  0  0  0  0
   -2.5051   -0.8008   15.0766 H   0  0  0  0  0  0  0  0  0  0  0  0
   -0.0560    1.7156   16.3338 H   0  0  0  0  0  0  0  0  0  0  0  0
    0.2632    0.8711   14.7808 H   0  0  0  0  0  0  0  0  0  0  0  0
   -0.1991    2.6069   14.7808 H   0  0  0  0  0  0  0  0  0  0  0  0
   -1.5762    1.2848   17.3420 H   0  0  0  0  0  0  0  0  0  0  0  0
   -3.1500    1.9339   16.7688 H   0  0  0  0  0  0  0  0  0  0  0  0
   -2.8557    0.1619   16.7688 H   0  0  0  0  0  0  0  0  0  0  0  0
   -3.1180    2.9876   15.1405 H   0  0  0  0  0  0  0  0  0  0  0  0
   -1.9362    2.8968   13.7908 H   0  0  0  0  0  0  0  0  0  0  0  0
   -3.3832    1.8324   13.7908 H   0  0  0  0  0  0  0  0  0  0  0  0
   -4.8600   -2.8586   15.3903 H   0  0  0  0  0  0  0  0  0  0  0  0
  1  2  1  0
  2  3  2  0
  3  4  1  0
  4  5  2  0
  5  6  1  0
  6  7  2  0
  7  8  1  0
  3  9  1  0
  9 10  2  0
  9 11  1  0
 11 12  1  0
 12 13  1  0
 13 14  1  0
 14 15  1  0
 15 16  2  0
 16 17  1  0
 17 18  2  0
 18 19  1  0
 19 20  2  0
 12 21  1  0
 21 22  1  0
 22 23  1  0
 23 24  1  0
 24 25  1  0
 25 26  1  0
 26 27  1  0
 27 28  1  0
 28 29  1  0
 29 30  1  0
 30 31  1  0
 31 32  1  0
 32 33  1  0
 33 34  2  0
 33 35  1  0
 35 36  1  0
 36 37  1  0
 36 38  1  0
 36 39  1  0
 21 40  1  0
  7  2  1  0
 20 15  1  0
 32 23  1  0
 30 25  1  0
  1 41  1  0
  1 42  1  0
  1 43  1  0
  4 44  1  0
  5 45  1  0
  6 46  1  0
  8 47  1  0
 11 48  1  0
 12 49  1  1
 13 50  1  0
 13 51  1  0
 16 52  1  0
 17 53  1  0
 18 54  1  0
 19 55  1  0
 20 56  1  0
 21 57  1  6
 22 58  1  0
 22 59  1  0
 24 60  1  0
 24 61  1  0
 25 62  1  1
 26 63  1  0
 26 64  1  0
 27 65  1  0
 27 66  1  0
 28 67  1  0
 28 68  1  0
 29 69  1  0
 29 70  1  0
 30 71  1  1
 31 72  1  0
 31 73  1  0
 32 74  1  1
 35 75  1  0
 37 76  1  0
 37 77  1  0
 37 78  1  0
 38 79  1  0
 38 80  1  0
 38 81  1  0
 39 82  1  0
 39 83  1  0
 39 84  1  0
 40 85  1  0
M  END
