
     RDKit          3D

 34 36  0  0  0  0  0  0  0  0999 V2000
   -1.0590    1.3250   15.7540 C   0  0  0  0  0  0  0  0  0  0  0  0
   -2.0760    1.5560   14.8380 C   0  0  0  0  0  0  0  0  0  0  0  0
   -2.9910    2.4430   15.4800 C   0  0  0  0  0  0  0  0  0  0  0  0
   -2.4980    2.7340   16.7430 C   0  0  0  0  0  0  0  0  0  0  0  0
   -1.3300    2.0350   16.8950 N   0  0  0  0  0  0  0  0  0  0  0  0
   -3.1900    3.5850   17.5870 C   0  0  0  0  0  0  0  0  0  0  0  0
   -4.3480    4.0990   17.1470 N   0  0  0  0  0  0  0  0  0  0  0  0
   -4.7590    3.7670   15.9090 C   0  0  0  0  0  0  0  0  0  0  0  0
   -4.1550    2.9580   15.0250 N   0  0  0  0  0  0  0  0  0  0  0  0
   -2.7490    3.9480   18.8510 N   0  0  0  0  0  0  0  0  0  0  0  0
   -2.1550    0.9800   13.4590 C   0  0  1  0  0  0  0  0  0  0  0  0
   -1.0190    0.0230   13.0670 C   0  0  1  0  0  0  0  0  0  0  0  0
   -1.6970   -0.8380   12.0050 C   0  0  1  0  0  0  0  0  0  0  0  0
   -3.1200   -0.9930   12.5400 C   0  0  2  0  0  0  0  0  0  0  0  0
   -3.4280    0.2370   13.3330 N   0  0  0  0  0  0  0  0  0  0  0  0
   -3.2600   -2.2150   13.4600 C   0  0  0  0  0  0  0  0  0  0  0  0
   -3.6960   -1.7910   14.7520 O   0  0  0  0  0  0  0  0  0  0  0  0
   -1.7130   -0.1300   10.7560 O   0  0  0  0  0  0  0  0  0  0  0  0
    0.1090    0.6940   12.4940 O   0  0  0  0  0  0  0  0  0  0  0  0
   -0.1826    0.6804   15.5916 H   0  0  0  0  0  0  0  0  0  0  0  0
   -0.7425    2.0418   17.7410 H   0  0  0  0  0  0  0  0  0  0  0  0
   -5.7087    4.2148   15.5809 H   0  0  0  0  0  0  0  0  0  0  0  0
   -3.3131    4.5867   19.4295 H   0  0  0  0  0  0  0  0  0  0  0  0
   -1.8574    3.5788   19.2111 H   0  0  0  0  0  0  0  0  0  0  0  0
   -2.0754    1.8430   12.7816 H   0  0  0  0  0  0  0  0  0  0  0  0
   -0.6113   -0.5198   13.9325 H   0  0  0  0  0  0  0  0  0  0  0  0
   -1.1954   -1.8007   11.8276 H   0  0  0  0  0  0  0  0  0  0  0  0
   -3.8088   -1.1324   11.6937 H   0  0  0  0  0  0  0  0  0  0  0  0
   -4.1289    0.8110   12.8429 H   0  0  0  0  0  0  0  0  0  0  0  0
   -3.9974   -2.9116   13.0346 H   0  0  0  0  0  0  0  0  0  0  0  0
   -2.2869   -2.7202   13.5490 H   0  0  0  0  0  0  0  0  0  0  0  0
   -3.1913   -2.2818   15.4481 H   0  0  0  0  0  0  0  0  0  0  0  0
   -1.7350    0.8445   10.9293 H   0  0  0  0  0  0  0  0  0  0  0  0
    0.6899    1.0395   13.2174 H   0  0  0  0  0  0  0  0  0  0  0  0
  1  2  2  0
  2  3  1  0
  3  4  2  0
  4  5  1  0
  4  6  1  0
  6  7  2  0
  7  8  1  0
  8  9  2  0
  6 10  1  0
  2 11  1  0
 11 12  1  0
 12 13  1  0
 13 14  1  0
 14 15  1  0
 14 16  1  0
 16 17  1  0
 13 18  1  0
 12 19  1  0
  5  1  1  0
  9  3  1  0
 15 11  1  0
  1 20  1  0
  5 21  1  0
  8 22  1  0
 10 23  1  0
 10 24  1  0
 11 25  1  6
 12 26  1  1
 13 27  1  6
 14 28  1  6
 15 29  1  0
 16 30  1  0
 16 31  1  0
 17 32  1  0
 18 33  1  0
 19 34  1  0
M  END
