
     RDKit          3D

 50 50  0  0  0  0  0  0  0  0999 V2000
 -110.6800   60.1730   35.3640 C   0  0  0  0  0  0  0  0  0  0  0  0
 -111.7550   60.6410   34.3970 C   0  0  0  0  0  0  0  0  0  0  0  0
 -111.5030   60.2170   32.9410 C   0  0  0  0  0  0  0  0  0  0  0  0
 -110.4190   59.1380   32.7750 C   0  0  0  0  0  0  0  0  0  0  0  0
 -110.9530   57.7520   32.4360 C   0  0  0  0  0  0  0  0  0  0  0  0
 -112.7140   59.6820   32.3840 O   0  0  0  0  0  0  0  0  0  0  0  0
 -113.5480   60.6510   31.7290 C   0  0  2  0  0  0  0  0  0  0  0  0
 -114.4740   59.8410   30.8670 C   0  0  0  0  0  0  0  0  0  0  0  0
 -114.0960   59.4030   29.6520 C   0  0  0  0  0  0  0  0  0  0  0  0
 -112.7240   59.7590   29.1500 C   0  0  0  0  0  0  0  0  0  0  0  0
 -112.3830   61.2290   29.4430 C   0  0  2  0  0  0  0  0  0  0  0  0
 -112.6710   61.6630   30.9250 C   0  0  1  0  0  0  0  0  0  0  0  0
 -113.2430   63.0200   30.9200 N   0  0  0  0  0  0  0  0  0  0  0  0
 -112.9370   63.9760   31.8500 C   0  0  0  0  0  0  0  0  0  0  0  0
 -112.2460   63.7610   32.8400 O   0  0  0  0  0  0  0  0  0  0  0  0
 -113.5220   65.3320   31.5640 C   0  0  0  0  0  0  0  0  0  0  0  0
 -113.0710   62.1300   28.4650 N   0  0  0  0  0  0  0  0  0  0  0  0
 -114.9630   58.5790   28.7710 C   0  0  0  0  0  0  0  0  0  0  0  0
 -116.1450   58.3770   29.0000 O   0  0  0  0  0  0  0  0  0  0  0  0
 -114.2660   58.0850   27.7170 O   0  0  0  0  0  0  0  0  0  0  0  0
 -114.1820   56.6550   27.6380 C   0  0  0  0  0  0  0  0  0  0  0  0
 -112.7940   56.1910   28.0360 C   0  0  0  0  0  0  0  0  0  0  0  0
 -111.0257   60.3235   36.3974 H   0  0  0  0  0  0  0  0  0  0  0  0
 -110.4766   59.1049   35.1973 H   0  0  0  0  0  0  0  0  0  0  0  0
 -109.7596   60.7519   35.1973 H   0  0  0  0  0  0  0  0  0  0  0  0
 -112.7190   60.2206   34.7193 H   0  0  0  0  0  0  0  0  0  0  0  0
 -111.7492   61.7408   34.4173 H   0  0  0  0  0  0  0  0  0  0  0  0
 -111.1584   61.1262   32.4267 H   0  0  0  0  0  0  0  0  0  0  0  0
 -109.7423   59.4525   31.9668 H   0  0  0  0  0  0  0  0  0  0  0  0
 -109.9147   59.0492   33.7486 H   0  0  0  0  0  0  0  0  0  0  0  0
 -111.1645   57.2031   33.3655 H   0  0  0  0  0  0  0  0  0  0  0  0
 -111.8781   57.8490   31.8489 H   0  0  0  0  0  0  0  0  0  0  0  0
 -110.2019   57.2032   31.8489 H   0  0  0  0  0  0  0  0  0  0  0  0
 -114.1272   61.2745   32.4260 H   0  0  0  0  0  0  0  0  0  0  0  0
 -115.4819   59.6009   31.2366 H   0  0  0  0  0  0  0  0  0  0  0  0
 -111.9832   59.1142   29.6455 H   0  0  0  0  0  0  0  0  0  0  0  0
 -112.7048   59.6099   28.0603 H   0  0  0  0  0  0  0  0  0  0  0  0
 -111.2946   61.3274   29.3176 H   0  0  0  0  0  0  0  0  0  0  0  0
 -111.7127   61.6664   31.4651 H   0  0  0  0  0  0  0  0  0  0  0  0
 -113.9109   63.2632   30.1746 H   0  0  0  0  0  0  0  0  0  0  0  0
 -113.7427   65.8436   32.5125 H   0  0  0  0  0  0  0  0  0  0  0  0
 -112.8009   65.9278   30.9852 H   0  0  0  0  0  0  0  0  0  0  0  0
 -114.4502   65.2162   30.9852 H   0  0  0  0  0  0  0  0  0  0  0  0
 -113.6137   62.8408   28.9760 H   0  0  0  0  0  0  0  0  0  0  0  0
 -112.3679   62.5949   27.8731 H   0  0  0  0  0  0  0  0  0  0  0  0
 -114.9233   56.2090   28.3174 H   0  0  0  0  0  0  0  0  0  0  0  0
 -114.3841   56.3394   26.6038 H   0  0  0  0  0  0  0  0  0  0  0  0
 -112.7166   56.1651   29.1330 H   0  0  0  0  0  0  0  0  0  0  0  0
 -112.6141   55.1839   27.6318 H   0  0  0  0  0  0  0  0  0  0  0  0
 -112.0446   56.8875   27.6318 H   0  0  0  0  0  0  0  0  0  0  0  0
  1  2  1  0
  2  3  1  0
  3  4  1  0
  4  5  1  0
  3  6  1  0
  6  7  1  0
  7  8  1  0
  8  9  2  0
  9 10  1  0
 10 11  1  0
 11 12  1  0
 12 13  1  0
 13 14  1  0
 14 15  2  0
 14 16  1  0
 11 17  1  0
  9 18  1  0
 18 19  2  0
 18 20  1  0
 20 21  1  0
 21 22  1  0
 12  7  1  0
  1 23  1  0
  1 24  1  0
  1 25  1  0
  2 26  1  0
  2 27  1  0
  3 28  1  0
  4 29  1  0
  4 30  1  0
  5 31  1  0
  5 32  1  0
  5 33  1  0
  7 34  1  1
  8 35  1  0
 10 36  1  0
 10 37  1  0
 11 38  1  1
 12 39  1  1
 13 40  1  0
 16 41  1  0
 16 42  1  0
 16 43  1  0
 17 44  1  0
 17 45  1  0
 21 46  1  0
 21 47  1  0
 22 48  1  0
 22 49  1  0
 22 50  1  0
M  END
