
     RDKit          3D

 67 69  0  0  0  0  0  0  0  0999 V2000
    0.2210   -3.6400   11.4450 C   0  0  0  0  0  0  0  0  0  0  0  0
   -1.2000   -3.4970   11.9330 C   0  0  0  0  0  0  0  0  0  0  0  0
   -2.1130   -2.5720   11.1440 C   0  0  2  0  0  0  0  0  0  0  0  0
   -1.6140   -2.1360   12.4800 C   0  0  1  0  0  0  0  0  0  0  0  0
   -2.8030   -1.9050   13.3840 C   0  0  2  0  0  0  0  0  0  0  0  0
   -3.9690   -2.2960   12.5600 N   0  0  0  0  0  0  0  0  0  0  0  0
   -3.6020   -2.6500   11.1910 C   0  0  0  0  0  0  0  0  0  0  0  0
   -5.1690   -2.6290   13.1540 C   0  0  0  0  0  0  0  0  0  0  0  0
   -5.3060   -2.5460   14.3830 O   0  0  0  0  0  0  0  0  0  0  0  0
   -6.3690   -3.0500   12.2640 C   0  0  2  0  0  0  0  0  0  0  0  0
   -7.4560   -1.9350   12.1290 C   0  0  0  0  0  0  0  0  0  0  0  0
   -6.8160   -0.5380   12.2610 C   0  0  0  0  0  0  0  0  0  0  0  0
   -8.5790   -2.0550   13.1750 C   0  0  0  0  0  0  0  0  0  0  0  0
   -8.0970   -2.0240   10.7250 C   0  0  0  0  0  0  0  0  0  0  0  0
   -6.9020   -4.2700   12.8810 N   0  0  0  0  0  0  0  0  0  0  0  0
   -6.9370   -5.4660   12.1640 C   0  0  0  0  0  0  0  0  0  0  0  0
   -6.7070   -5.4960   10.9540 O   0  0  0  0  0  0  0  0  0  0  0  0
   -7.3070   -6.7120   13.0020 C   0  0  0  0  0  0  0  0  0  0  0  0
   -7.0790   -6.5300   14.3310 F   0  0  0  0  0  0  0  0  0  0  0  0
   -6.5720   -7.8030   12.6340 F   0  0  0  0  0  0  0  0  0  0  0  0
   -8.6130   -7.0670   12.8680 F   0  0  0  0  0  0  0  0  0  0  0  0
   -2.9070   -0.4300   13.8770 C   0  0  0  0  0  0  0  0  0  0  0  0
   -3.4210    0.4730   13.2200 O   0  0  0  0  0  0  0  0  0  0  0  0
   -2.2790   -0.1740   15.0780 N   0  0  0  0  0  0  0  0  0  0  0  0
   -2.1240    1.1850   15.5860 C   0  0  1  0  0  0  0  0  0  0  0  0
   -2.6570    1.2410   17.0240 C   0  0  0  0  0  0  0  0  0  0  0  0
   -3.5800    2.4290   17.3110 C   0  0  2  0  0  0  0  0  0  0  0  0
   -3.9380    3.3070   16.1070 C   0  0  0  0  0  0  0  0  0  0  0  0
   -4.1980    4.6680   16.7270 C   0  0  0  0  0  0  0  0  0  0  0  0
   -3.3000    4.6940   17.8400 N   0  0  0  0  0  0  0  0  0  0  0  0
   -2.9160    3.4320   18.2380 C   0  0  0  0  0  0  0  0  0  0  0  0
   -2.2040    3.1820   19.1940 O   0  0  0  0  0  0  0  0  0  0  0  0
   -0.7050    1.6010   15.5130 C   0  0  0  0  0  0  0  0  0  0  0  0
    0.4090    1.9290   15.4920 N   0  0  0  0  0  0  0  0  0  0  0  0
   -1.7420   -4.7640   12.5500 C   0  0  0  0  0  0  0  0  0  0  0  0
    0.8999   -3.7083   12.3078 H   0  0  0  0  0  0  0  0  0  0  0  0
    0.3095   -4.5516   10.8358 H   0  0  0  0  0  0  0  0  0  0  0  0
    0.4893   -2.7643   10.8358 H   0  0  0  0  0  0  0  0  0  0  0  0
   -2.0666   -2.3008   10.0790 H   0  0  0  0  0  0  0  0  0  0  0  0
   -0.9866   -1.3736   12.9649 H   0  0  0  0  0  0  0  0  0  0  0  0
   -2.7281   -2.4909   14.3120 H   0  0  0  0  0  0  0  0  0  0  0  0
   -3.9411   -3.6691   10.9535 H   0  0  0  0  0  0  0  0  0  0  0  0
   -4.0690   -1.9772   10.4566 H   0  0  0  0  0  0  0  0  0  0  0  0
   -6.0430   -3.2249   11.2281 H   0  0  0  0  0  0  0  0  0  0  0  0
   -6.7008   -0.2866   13.3257 H   0  0  0  0  0  0  0  0  0  0  0  0
   -5.8288   -0.5396   11.7757 H   0  0  0  0  0  0  0  0  0  0  0  0
   -7.4619    0.2086   11.7757 H   0  0  0  0  0  0  0  0  0  0  0  0
   -8.1458   -2.0087   14.1850 H   0  0  0  0  0  0  0  0  0  0  0  0
   -9.2923   -1.2280   13.0437 H   0  0  0  0  0  0  0  0  0  0  0  0
   -9.1014   -3.0141   13.0437 H   0  0  0  0  0  0  0  0  0  0  0  0
   -9.1819   -2.1746   10.8261 H   0  0  0  0  0  0  0  0  0  0  0  0
   -7.9061   -1.0907   10.1749 H   0  0  0  0  0  0  0  0  0  0  0  0
   -7.6591   -2.8700   10.1749 H   0  0  0  0  0  0  0  0  0  0  0  0
   -7.2523   -4.2431   13.8492 H   0  0  0  0  0  0  0  0  0  0  0  0
   -1.9103   -0.9616   15.6299 H   0  0  0  0  0  0  0  0  0  0  0  0
   -2.7021    1.8879   14.9682 H   0  0  0  0  0  0  0  0  0  0  0  0
   -3.2174    0.3149   17.2195 H   0  0  0  0  0  0  0  0  0  0  0  0
   -1.7811    1.3587   17.6790 H   0  0  0  0  0  0  0  0  0  0  0  0
   -4.4709    1.9233   17.7117 H   0  0  0  0  0  0  0  0  0  0  0  0
   -3.1034    3.3534   15.3920 H   0  0  0  0  0  0  0  0  0  0  0  0
   -4.7976    2.9240   15.5374 H   0  0  0  0  0  0  0  0  0  0  0  0
   -3.9696    5.4759   16.0163 H   0  0  0  0  0  0  0  0  0  0  0  0
   -5.2488    4.8182   17.0155 H   0  0  0  0  0  0  0  0  0  0  0  0
   -2.9763    5.5602   18.2937 H   0  0  0  0  0  0  0  0  0  0  0  0
   -1.7069   -4.6820   13.6464 H   0  0  0  0  0  0  0  0  0  0  0  0
   -2.7827   -4.9133   12.2266 H   0  0  0  0  0  0  0  0  0  0  0  0
   -1.1312   -5.6198   12.2266 H   0  0  0  0  0  0  0  0  0  0  0  0
  1  2  1  0
  2  3  1  0
  3  4  1  0
  4  5  1  0
  5  6  1  0
  6  7  1  0
  6  8  1  0
  8  9  2  0
  8 10  1  0
 10 11  1  0
 11 12  1  0
 11 13  1  0
 11 14  1  0
 10 15  1  0
 15 16  1  0
 16 17  2  0
 16 18  1  0
 18 19  1  0
 18 20  1  0
 18 21  1  0
  5 22  1  0
 22 23  2  0
 22 24  1  0
 24 25  1  0
 25 26  1  0
 26 27  1  0
 27 28  1  0
 28 29  1  0
 29 30  1  0
 30 31  1  0
 31 32  2  0
 25 33  1  0
 33 34  3  0
  2 35  1  0
  4  2  1  0
  7  3  1  0
 31 27  1  0
  1 36  1  0
  1 37  1  0
  1 38  1  0
  3 39  1  6
  4 40  1  6
  5 41  1  1
  7 42  1  0
  7 43  1  0
 10 44  1  6
 12 45  1  0
 12 46  1  0
 12 47  1  0
 13 48  1  0
 13 49  1  0
 13 50  1  0
 14 51  1  0
 14 52  1  0
 14 53  1  0
 15 54  1  0
 24 55  1  0
 25 56  1  6
 26 57  1  0
 26 58  1  0
 27 59  1  1
 28 60  1  0
 28 61  1  0
 29 62  1  0
 29 63  1  0
 30 64  1  0
 35 65  1  0
 35 66  1  0
 35 67  1  0
M  END
