
     RDKit          3D

 41 43  0  0  0  0  0  0  0  0999 V2000
    0.0920   -2.7440   11.7570 C   0  0  0  0  0  0  0  0  0  0  0  0
   -0.2550   -1.3660   11.7310 O   0  0  0  0  0  0  0  0  0  0  0  0
   -1.4350   -0.9920   12.3190 C   0  0  0  0  0  0  0  0  0  0  0  0
   -1.4300    0.1900   13.0800 C   0  0  0  0  0  0  0  0  0  0  0  0
   -2.6390    0.6370   13.6300 C   0  0  0  0  0  0  0  0  0  0  0  0
   -3.8070   -0.0430   13.4820 N   0  0  0  0  0  0  0  0  0  0  0  0
   -3.7720   -1.1920   12.7810 C   0  0  0  0  0  0  0  0  0  0  0  0
   -2.6290   -1.6990   12.1860 C   0  0  0  0  0  0  0  0  0  0  0  0
   -2.7140    1.9230   14.4150 C   0  0  0  0  0  0  0  0  0  0  0  0
   -2.1470    1.7210   16.1310 S   0  0  0  0  0  0  0  0  0  0  0  0
   -2.5100    0.3510   16.6310 O   0  0  0  0  0  0  0  0  0  0  0  0
   -3.3650    2.8210   16.8730 C   0  0  0  0  0  0  0  0  0  0  0  0
   -3.4850    4.1060   16.6220 N   0  0  0  0  0  0  0  0  0  0  0  0
   -4.5320    4.5240   17.4070 C   0  0  0  0  0  0  0  0  0  0  0  0
   -5.0580    3.4680   18.1430 C   0  0  0  0  0  0  0  0  0  0  0  0
   -4.2900    2.3930   17.7850 N   0  0  0  0  0  0  0  0  0  0  0  0
   -6.1350    3.6120   19.0210 C   0  0  0  0  0  0  0  0  0  0  0  0
   -6.7010    4.8900   19.1430 C   0  0  0  0  0  0  0  0  0  0  0  0
   -6.1780    5.9710   18.4250 C   0  0  0  0  0  0  0  0  0  0  0  0
   -5.0940    5.8000   17.5490 C   0  0  0  0  0  0  0  0  0  0  0  0
   -7.7500    4.9520   20.0200 O   0  0  0  0  0  0  0  0  0  0  0  0
   -8.1770    6.2480   20.4050 C   0  0  0  0  0  0  0  0  0  0  0  0
   -9.4810    6.1530   20.7690 F   0  0  0  0  0  0  0  0  0  0  0  0
   -7.4930    6.6320   21.5110 F   0  0  0  0  0  0  0  0  0  0  0  0
   -0.3300    0.9880   13.2640 O   0  0  0  0  0  0  0  0  0  0  0  0
   -0.1690    2.0070   12.2780 C   0  0  0  0  0  0  0  0  0  0  0  0
    0.1769   -3.0811   12.8006 H   0  0  0  0  0  0  0  0  0  0  0  0
   -0.6871   -3.3280   11.2452 H   0  0  0  0  0  0  0  0  0  0  0  0
    1.0548   -2.8894   11.2452 H   0  0  0  0  0  0  0  0  0  0  0  0
   -4.7069   -1.7618   12.6746 H   0  0  0  0  0  0  0  0  0  0  0  0
   -2.6626   -2.6413   11.6194 H   0  0  0  0  0  0  0  0  0  0  0  0
   -2.0828    2.6761   13.9206 H   0  0  0  0  0  0  0  0  0  0  0  0
   -3.7677    2.2372   14.4445 H   0  0  0  0  0  0  0  0  0  0  0  0
   -4.3909    1.4313   18.1399 H   0  0  0  0  0  0  0  0  0  0  0  0
   -6.5239    2.7573   19.5940 H   0  0  0  0  0  0  0  0  0  0  0  0
   -6.6226    6.9695   18.5486 H   0  0  0  0  0  0  0  0  0  0  0  0
   -4.6924    6.6537   16.9834 H   0  0  0  0  0  0  0  0  0  0  0  0
   -8.0195    6.9592   19.5807 H   0  0  0  0  0  0  0  0  0  0  0  0
   -0.0158    2.9766   12.7744 H   0  0  0  0  0  0  0  0  0  0  0  0
    0.7036    1.7748   11.6498 H   0  0  0  0  0  0  0  0  0  0  0  0
   -1.0707    2.0551   11.6498 H   0  0  0  0  0  0  0  0  0  0  0  0
  1  2  1  0
  2  3  1  0
  3  4  2  0
  4  5  1  0
  5  6  2  0
  6  7  1  0
  7  8  2  0
  5  9  1  0
  9 10  1  0
 10 11  2  0
 10 12  1  0
 12 13  2  0
 13 14  1  0
 14 15  2  0
 15 16  1  0
 15 17  1  0
 17 18  2  0
 18 19  1  0
 19 20  2  0
 18 21  1  0
 21 22  1  0
 22 23  1  0
 22 24  1  0
  4 25  1  0
 25 26  1  0
  8  3  1  0
 16 12  1  0
 20 14  1  0
  1 27  1  0
  1 28  1  0
  1 29  1  0
  7 30  1  0
  8 31  1  0
  9 32  1  0
  9 33  1  0
 16 34  1  0
 17 35  1  0
 19 36  1  0
 20 37  1  0
 22 38  1  0
 26 39  1  0
 26 40  1  0
 26 41  1  0
M  END
