
     RDKit          3D

 62 65  0  0  0  0  0  0  0  0999 V2000
 -112.3090   73.1380   42.4640 C   0  0  0  0  0  0  0  0  0  0  0  0
 -113.6040   72.4070   42.9100 C   0  0  0  0  0  0  0  0  0  0  0  0
 -113.9440   72.9580   44.3100 C   0  0  0  0  0  0  0  0  0  0  0  0
 -114.6920   72.8340   41.8980 C   0  0  0  0  0  0  0  0  0  0  0  0
 -113.4650   70.8630   42.9530 C   0  0  0  0  0  0  0  0  0  0  0  0
 -114.1410   70.1090   43.9410 C   0  0  0  0  0  0  0  0  0  0  0  0
 -114.0150   68.7130   44.0760 C   0  0  0  0  0  0  0  0  0  0  0  0
 -113.1570   68.0570   43.1910 C   0  0  0  0  0  0  0  0  0  0  0  0
 -112.4600   68.7410   42.1760 C   0  0  0  0  0  0  0  0  0  0  0  0
 -112.6640   70.1370   42.0390 C   0  0  0  0  0  0  0  0  0  0  0  0
 -112.0270   70.8340   41.0380 O   0  0  0  0  0  0  0  0  0  0  0  0
 -112.6770   70.6920   39.7710 C   0  0  0  0  0  0  0  0  0  0  0  0
 -111.5230   67.9750   41.3310 C   0  0  0  0  0  0  0  0  0  0  0  0
 -111.9930   67.0780   40.3570 C   0  0  0  0  0  0  0  0  0  0  0  0
 -111.1110   66.3430   39.5460 C   0  0  0  0  0  0  0  0  0  0  0  0
 -109.7170   66.5030   39.7160 C   0  0  0  0  0  0  0  0  0  0  0  0
 -109.2450   67.3920   40.6920 C   0  0  0  0  0  0  0  0  0  0  0  0
 -110.1370   68.1140   41.4890 C   0  0  0  0  0  0  0  0  0  0  0  0
 -108.8340   65.7740   38.9030 C   0  0  0  0  0  0  0  0  0  0  0  0
 -109.3250   64.8870   37.9460 C   0  0  0  0  0  0  0  0  0  0  0  0
 -110.6970   64.7330   37.7660 C   0  0  0  0  0  0  0  0  0  0  0  0
 -111.5850   65.4540   38.5670 C   0  0  0  0  0  0  0  0  0  0  0  0
 -108.4140   64.1870   37.1000 N   0  0  0  0  0  0  0  0  0  0  0  0
 -107.6570   62.8190   37.7520 S   0  0  0  0  0  0  0  0  0  0  0  0
 -106.3390   63.2670   38.1500 O   0  0  0  0  0  0  0  0  0  0  0  0
 -108.5360   62.1510   38.6840 O   0  0  0  0  0  0  0  0  0  0  0  0
 -107.4640   61.8060   36.3020 C   0  0  0  0  0  0  0  0  0  0  0  0
 -114.7580   67.9970   45.0940 N   0  0  0  0  0  0  0  0  0  0  0  0
 -115.2890   68.6690   46.1920 C   0  0  0  0  0  0  0  0  0  0  0  0
 -115.9530   68.0610   47.1760 C   0  0  0  0  0  0  0  0  0  0  0  0
 -116.1490   66.6120   47.1120 C   0  0  0  0  0  0  0  0  0  0  0  0
 -116.6860   66.0010   48.0260 O   0  0  0  0  0  0  0  0  0  0  0  0
 -115.6920   66.0150   45.9770 N   0  0  0  0  0  0  0  0  0  0  0  0
 -114.9360   66.5990   44.9870 C   0  0  0  0  0  0  0  0  0  0  0  0
 -114.4570   65.8600   44.1290 O   0  0  0  0  0  0  0  0  0  0  0  0
 -111.7437   73.4571   43.3520 H   0  0  0  0  0  0  0  0  0  0  0  0
 -111.6914   72.4553   41.8620 H   0  0  0  0  0  0  0  0  0  0  0  0
 -112.5744   74.0196   41.8620 H   0  0  0  0  0  0  0  0  0  0  0  0
 -113.5305   72.2879   45.0781 H   0  0  0  0  0  0  0  0  0  0  0  0
 -113.5076   73.9612   44.4251 H   0  0  0  0  0  0  0  0  0  0  0  0
 -115.0363   73.0179   44.4251 H   0  0  0  0  0  0  0  0  0  0  0  0
 -115.5820   73.1833   42.4420 H   0  0  0  0  0  0  0  0  0  0  0  0
 -114.3059   73.6473   41.2660 H   0  0  0  0  0  0  0  0  0  0  0  0
 -114.9622   71.9752   41.2660 H   0  0  0  0  0  0  0  0  0  0  0  0
 -114.8006   70.6420   44.6415 H   0  0  0  0  0  0  0  0  0  0  0  0
 -113.0209   66.9699   43.2898 H   0  0  0  0  0  0  0  0  0  0  0  0
 -113.7406   70.4596   39.9285 H   0  0  0  0  0  0  0  0  0  0  0  0
 -112.5867   71.6311   39.2053 H   0  0  0  0  0  0  0  0  0  0  0  0
 -112.2033   69.8761   39.2053 H   0  0  0  0  0  0  0  0  0  0  0  0
 -113.0774   66.9478   40.2260 H   0  0  0  0  0  0  0  0  0  0  0  0
 -108.1617   67.5224   40.8317 H   0  0  0  0  0  0  0  0  0  0  0  0
 -109.7455   68.8024   42.2525 H   0  0  0  0  0  0  0  0  0  0  0  0
 -107.7482   65.9036   39.0220 H   0  0  0  0  0  0  0  0  0  0  0  0
 -111.0797   64.0465   36.9964 H   0  0  0  0  0  0  0  0  0  0  0  0
 -112.6687   65.3243   38.4297 H   0  0  0  0  0  0  0  0  0  0  0  0
 -108.2252   64.4992   36.1368 H   0  0  0  0  0  0  0  0  0  0  0  0
 -107.2661   60.7670   36.6043 H   0  0  0  0  0  0  0  0  0  0  0  0
 -108.3856   61.8443   35.7027 H   0  0  0  0  0  0  0  0  0  0  0  0
 -106.6210   62.1804   35.7027 H   0  0  0  0  0  0  0  0  0  0  0  0
 -115.1536   69.7590   46.2509 H   0  0  0  0  0  0  0  0  0  0  0  0
 -116.3477   68.6404   48.0237 H   0  0  0  0  0  0  0  0  0  0  0  0
 -115.9377   65.0234   45.8459 H   0  0  0  0  0  0  0  0  0  0  0  0
  1  2  1  0
  2  3  1  0
  2  4  1  0
  2  5  1  0
  5  6  2  0
  6  7  1  0
  7  8  2  0
  8  9  1  0
  9 10  2  0
 10 11  1  0
 11 12  1  0
  9 13  1  0
 13 14  2  0
 14 15  1  0
 15 16  2  0
 16 17  1  0
 17 18  2  0
 16 19  1  0
 19 20  2  0
 20 21  1  0
 21 22  2  0
 20 23  1  0
 23 24  1  0
 24 25  2  0
 24 26  2  0
 24 27  1  0
  7 28  1  0
 28 29  1  0
 29 30  2  0
 30 31  1  0
 31 32  2  0
 31 33  1  0
 33 34  1  0
 34 35  2  0
 10  5  1  0
 18 13  1  0
 22 15  1  0
 34 28  1  0
  1 36  1  0
  1 37  1  0
  1 38  1  0
  3 39  1  0
  3 40  1  0
  3 41  1  0
  4 42  1  0
  4 43  1  0
  4 44  1  0
  6 45  1  0
  8 46  1  0
 12 47  1  0
 12 48  1  0
 12 49  1  0
 14 50  1  0
 17 51  1  0
 18 52  1  0
 19 53  1  0
 21 54  1  0
 22 55  1  0
 23 56  1  0
 27 57  1  0
 27 58  1  0
 27 59  1  0
 29 60  1  0
 30 61  1  0
 33 62  1  0
M  END
