
     RDKit          3D

 53 54  0  0  0  0  0  0  0  0999 V2000
  -22.0180   72.5000   33.5590 C   0  0  0  0  0  0  0  0  0  0  0  0
  -21.5000   71.9750   34.8850 C   0  0  0  0  0  0  0  0  0  0  0  0
  -20.2250   71.3410   34.6990 O   0  0  0  0  0  0  0  0  0  0  0  0
  -20.1600   70.0400   35.0800 C   0  0  0  0  0  0  0  0  0  0  0  0
  -20.1140   69.6230   36.2260 O   0  0  0  0  0  0  0  0  0  0  0  0
  -20.0720   69.1760   33.8880 C   0  0  0  0  0  0  0  0  0  0  0  0
  -18.8950   68.8180   33.3300 C   0  0  0  0  0  0  0  0  0  0  0  0
  -18.8930   68.0250   32.1880 N   0  0  0  0  0  0  0  0  0  0  0  0
  -20.0280   67.7010   31.4630 C   0  0  0  0  0  0  0  0  0  0  0  0
  -21.2460   68.0080   31.9660 C   0  0  0  0  0  0  0  0  0  0  0  0
  -21.4090   68.7350   33.2990 C   0  0  0  0  0  0  0  0  0  0  0  0
  -22.1790   67.8670   34.3050 C   0  0  0  0  0  0  0  0  0  0  0  0
  -21.6320   66.6280   34.7080 C   0  0  0  0  0  0  0  0  0  0  0  0
  -22.2880   65.8100   35.6270 C   0  0  0  0  0  0  0  0  0  0  0  0
  -23.5070   66.2090   36.1660 C   0  0  0  0  0  0  0  0  0  0  0  0
  -24.0680   67.4260   35.7810 C   0  0  0  0  0  0  0  0  0  0  0  0
  -23.4130   68.2510   34.8590 C   0  0  0  0  0  0  0  0  0  0  0  0
  -24.1960   69.7360   34.4540 Cl  0  0  0  0  0  0  0  0  0  0  0  0
  -22.5070   67.7170   31.2560 C   0  0  0  0  0  0  0  0  0  0  0  0
  -23.1010   66.6540   31.3380 O   0  0  0  0  0  0  0  0  0  0  0  0
  -22.8460   68.7700   30.4710 O   0  0  0  0  0  0  0  0  0  0  0  0
  -23.9720   69.5040   30.9510 C   0  0  0  0  0  0  0  0  0  0  0  0
  -19.7890   67.0600   30.1200 C   0  0  0  0  0  0  0  0  0  0  0  0
  -17.5380   69.2750   33.8350 C   0  0  0  0  0  0  0  0  0  0  0  0
  -17.1370   70.4350   33.0860 O   0  0  0  0  0  0  0  0  0  0  0  0
  -16.8920   71.5490   33.9450 C   0  0  0  0  0  0  0  0  0  0  0  0
  -16.6050   71.0310   35.3590 C   0  0  0  0  0  0  0  0  0  0  0  0
  -17.4450   71.6530   36.3820 N   0  0  0  0  0  0  0  0  0  0  0  0
  -22.7797   73.2720   33.7427 H   0  0  0  0  0  0  0  0  0  0  0  0
  -21.1856   72.9351   32.9865 H   0  0  0  0  0  0  0  0  0  0  0  0
  -22.4642   71.6735   32.9865 H   0  0  0  0  0  0  0  0  0  0  0  0
  -21.3910   72.8120   35.5904 H   0  0  0  0  0  0  0  0  0  0  0  0
  -22.2135   71.2396   35.2852 H   0  0  0  0  0  0  0  0  0  0  0  0
  -17.9896   67.6547   31.8600 H   0  0  0  0  0  0  0  0  0  0  0  0
  -21.9917   69.6455   33.0955 H   0  0  0  0  0  0  0  0  0  0  0  0
  -20.6689   66.3022   34.2881 H   0  0  0  0  0  0  0  0  0  0  0  0
  -21.8421   64.8498   35.9257 H   0  0  0  0  0  0  0  0  0  0  0  0
  -24.0261   65.5670   36.8929 H   0  0  0  0  0  0  0  0  0  0  0  0
  -25.0330   67.7404   36.2051 H   0  0  0  0  0  0  0  0  0  0  0  0
  -23.9691   69.5021   32.0510 H   0  0  0  0  0  0  0  0  0  0  0  0
  -23.9169   70.5402   30.5860 H   0  0  0  0  0  0  0  0  0  0  0  0
  -24.8978   69.0354   30.5860 H   0  0  0  0  0  0  0  0  0  0  0  0
  -19.4080   66.0382   30.2640 H   0  0  0  0  0  0  0  0  0  0  0  0
  -20.7338   67.0232   29.5579 H   0  0  0  0  0  0  0  0  0  0  0  0
  -19.0507   67.6508   29.5579 H   0  0  0  0  0  0  0  0  0  0  0  0
  -17.6063   69.5289   34.9031 H   0  0  0  0  0  0  0  0  0  0  0  0
  -16.7987   68.4706   33.7067 H   0  0  0  0  0  0  0  0  0  0  0  0
  -16.0246   72.1161   33.5762 H   0  0  0  0  0  0  0  0  0  0  0  0
  -17.7722   72.2085   33.9608 H   0  0  0  0  0  0  0  0  0  0  0  0
  -16.7800   69.9451   35.3757 H   0  0  0  0  0  0  0  0  0  0  0  0
  -15.5610   71.2850   35.5945 H   0  0  0  0  0  0  0  0  0  0  0  0
  -17.0963   71.3948   37.3162 H   0  0  0  0  0  0  0  0  0  0  0  0
  -17.4147   72.6770   36.2752 H   0  0  0  0  0  0  0  0  0  0  0  0
  1  2  1  0
  2  3  1  0
  3  4  1  0
  4  5  2  0
  4  6  1  0
  6  7  2  0
  7  8  1  0
  8  9  1  0
  9 10  2  0
 10 11  1  0
 11 12  1  0
 12 13  2  0
 13 14  1  0
 14 15  2  0
 15 16  1  0
 16 17  2  0
 17 18  1  0
 10 19  1  0
 19 20  2  0
 19 21  1  0
 21 22  1  0
  9 23  1  0
  7 24  1  0
 24 25  1  0
 25 26  1  0
 26 27  1  0
 27 28  1  0
 11  6  1  0
 17 12  1  0
  1 29  1  0
  1 30  1  0
  1 31  1  0
  2 32  1  0
  2 33  1  0
  8 34  1  0
 11 35  1  0
 13 36  1  0
 14 37  1  0
 15 38  1  0
 16 39  1  0
 22 40  1  0
 22 41  1  0
 22 42  1  0
 23 43  1  0
 23 44  1  0
 23 45  1  0
 24 46  1  0
 24 47  1  0
 26 48  1  0
 26 49  1  0
 27 50  1  0
 27 51  1  0
 28 52  1  0
 28 53  1  0
M  END
