
     RDKit          3D

 54 57  0  0  0  0  0  0  0  0999 V2000
   -0.9930   -6.9940   11.9910 C   0  0  0  0  0  0  0  0  0  0  0  0
   -0.9220   -5.6860   12.6360 N   0  0  0  0  0  0  0  0  0  0  0  0
    0.3080   -4.9630   12.2920 C   0  0  0  0  0  0  0  0  0  0  0  0
    0.1000   -3.8490   11.2680 C   0  0  0  0  0  0  0  0  0  0  0  0
   -0.9210   -2.8090   11.7560 C   0  0  0  0  0  0  0  0  0  0  0  0
   -1.9660   -3.4390   12.6960 C   0  0  0  0  0  0  0  0  0  0  0  0
   -2.1550   -4.9220   12.3930 C   0  0  0  0  0  0  0  0  0  0  0  0
   -0.2340   -1.6090   12.4270 C   0  0  0  0  0  0  0  0  0  0  0  0
   -0.9570   -0.4250   12.0920 O   0  0  0  0  0  0  0  0  0  0  0  0
   -1.4360    0.3510   13.1160 C   0  0  0  0  0  0  0  0  0  0  0  0
   -2.8160    0.6030   13.1040 C   0  0  0  0  0  0  0  0  0  0  0  0
   -3.3720    1.3820   14.1200 C   0  0  0  0  0  0  0  0  0  0  0  0
   -2.5640    1.9210   15.1560 C   0  0  0  0  0  0  0  0  0  0  0  0
   -1.1850    1.6810   15.1450 C   0  0  0  0  0  0  0  0  0  0  0  0
   -0.6450    0.8990   14.1310 C   0  0  0  0  0  0  0  0  0  0  0  0
   -0.3590    2.1740   16.0710 N   0  0  0  0  0  0  0  0  0  0  0  0
   -0.9090    2.9280   17.0290 C   0  0  0  0  0  0  0  0  0  0  0  0
   -2.2040    3.2260   17.1510 N   0  0  0  0  0  0  0  0  0  0  0  0
   -3.0340    2.7120   16.2250 C   0  0  0  0  0  0  0  0  0  0  0  0
   -4.4270    2.9670   16.3290 N   0  0  0  0  0  0  0  0  0  0  0  0
   -5.0880    3.8890   17.1750 C   0  0  0  0  0  0  0  0  0  0  0  0
   -4.9950    5.2620   16.8920 C   0  0  0  0  0  0  0  0  0  0  0  0
   -5.5680    6.2290   17.7130 C   0  0  0  0  0  0  0  0  0  0  0  0
   -6.2350    5.8230   18.8620 C   0  0  0  0  0  0  0  0  0  0  0  0
   -6.3210    4.4710   19.1900 C   0  0  0  0  0  0  0  0  0  0  0  0
   -5.7390    3.5110   18.3540 C   0  0  0  0  0  0  0  0  0  0  0  0
   -7.0210    7.1160   19.9960 Br  0  0  0  0  0  0  0  0  0  0  0  0
   -4.3410    5.6560   15.7880 F   0  0  0  0  0  0  0  0  0  0  0  0
   -3.5260    0.0430   12.0730 O   0  0  0  0  0  0  0  0  0  0  0  0
   -4.5630   -0.8730   12.3990 C   0  0  0  0  0  0  0  0  0  0  0  0
   -1.0357   -7.7799   12.7594 H   0  0  0  0  0  0  0  0  0  0  0  0
   -1.8952   -7.0451   11.3638 H   0  0  0  0  0  0  0  0  0  0  0  0
   -0.1016   -7.1424   11.3638 H   0  0  0  0  0  0  0  0  0  0  0  0
    0.7176   -4.5180   13.2108 H   0  0  0  0  0  0  0  0  0  0  0  0
    0.9935   -5.6934   11.8374 H   0  0  0  0  0  0  0  0  0  0  0  0
    1.0619   -3.3466   11.0880 H   0  0  0  0  0  0  0  0  0  0  0  0
   -0.2882   -4.3020   10.3438 H   0  0  0  0  0  0  0  0  0  0  0  0
   -1.4493   -2.4369   10.8658 H   0  0  0  0  0  0  0  0  0  0  0  0
   -1.6279   -3.3253   13.7366 H   0  0  0  0  0  0  0  0  0  0  0  0
   -2.9271   -2.9262   12.5432 H   0  0  0  0  0  0  0  0  0  0  0  0
   -2.9536   -5.3189   13.0370 H   0  0  0  0  0  0  0  0  0  0  0  0
   -2.4195   -5.0249   11.3302 H   0  0  0  0  0  0  0  0  0  0  0  0
   -0.2320   -1.7457   13.5185 H   0  0  0  0  0  0  0  0  0  0  0  0
    0.8054   -1.5266   12.0765 H   0  0  0  0  0  0  0  0  0  0  0  0
   -4.4537    1.5817   14.1182 H   0  0  0  0  0  0  0  0  0  0  0  0
    0.4378    0.7051   14.1265 H   0  0  0  0  0  0  0  0  0  0  0  0
   -0.2293    3.3418   17.7885 H   0  0  0  0  0  0  0  0  0  0  0  0
   -5.0334    2.4102   15.7100 H   0  0  0  0  0  0  0  0  0  0  0  0
   -5.4940    7.2961   17.4565 H   0  0  0  0  0  0  0  0  0  0  0  0
   -6.8457    4.1588   20.1050 H   0  0  0  0  0  0  0  0  0  0  0  0
   -5.7942    2.4469   18.6273 H   0  0  0  0  0  0  0  0  0  0  0  0
   -4.6522   -0.9518   13.4925 H   0  0  0  0  0  0  0  0  0  0  0  0
   -5.5142   -0.5149   11.9784 H   0  0  0  0  0  0  0  0  0  0  0  0
   -4.3250   -1.8611   11.9784 H   0  0  0  0  0  0  0  0  0  0  0  0
  1  2  1  0
  2  3  1  0
  3  4  1  0
  4  5  1  0
  5  6  1  0
  6  7  1  0
  5  8  1  0
  8  9  1  0
  9 10  1  0
 10 11  2  0
 11 12  1  0
 12 13  2  0
 13 14  1  0
 14 15  2  0
 14 16  1  0
 16 17  2  0
 17 18  1  0
 18 19  2  0
 19 20  1  0
 20 21  1  0
 21 22  2  0
 22 23  1  0
 23 24  2  0
 24 25  1  0
 25 26  2  0
 24 27  1  0
 22 28  1  0
 11 29  1  0
 29 30  1  0
  7  2  1  0
 15 10  1  0
 19 13  1  0
 26 21  1  0
  1 31  1  0
  1 32  1  0
  1 33  1  0
  3 34  1  0
  3 35  1  0
  4 36  1  0
  4 37  1  0
  5 38  1  0
  6 39  1  0
  6 40  1  0
  7 41  1  0
  7 42  1  0
  8 43  1  0
  8 44  1  0
 12 45  1  0
 15 46  1  0
 17 47  1  0
 20 48  1  0
 23 49  1  0
 25 50  1  0
 26 51  1  0
 30 52  1  0
 30 53  1  0
 30 54  1  0
M  END
