
     RDKit          3D

 62 64  0  0  0  0  0  0  0  0999 V2000
   -8.2300   -5.0920   14.3200 C   0  0  0  0  0  0  0  0  0  0  0  0
   -7.5290   -3.9680   13.6160 C   0  0  0  0  0  0  0  0  0  0  0  0
   -8.0660   -2.6870   13.6080 C   0  0  0  0  0  0  0  0  0  0  0  0
   -9.3120   -2.1580   14.2010 C   0  0  0  0  0  0  0  0  0  0  0  0
   -9.3110   -0.7640   13.8160 O   0  0  0  0  0  0  0  0  0  0  0  0
   -8.2040   -0.4490   13.0870 C   0  0  0  0  0  0  0  0  0  0  0  0
   -7.9140    0.6280   12.6000 O   0  0  0  0  0  0  0  0  0  0  0  0
   -7.4110   -1.6570   12.9670 C   0  0  0  0  0  0  0  0  0  0  0  0
   -6.2040   -1.8180   12.3130 C   0  0  0  0  0  0  0  0  0  0  0  0
   -5.6400   -3.1000   12.2590 C   0  0  0  0  0  0  0  0  0  0  0  0
   -6.3340   -4.1680   12.8870 C   0  0  0  0  0  0  0  0  0  0  0  0
   -5.7900   -5.4280   12.8210 O   0  0  0  0  0  0  0  0  0  0  0  0
   -6.3580   -6.1710   11.7390 C   0  0  0  0  0  0  0  0  0  0  0  0
   -4.3620   -3.3360   11.4760 C   0  0  0  0  0  0  0  0  0  0  0  0
   -3.2260   -2.5300   12.0560 C   0  0  0  0  0  0  0  0  0  0  0  0
   -2.0110   -2.2870   11.5220 C   0  0  0  0  0  0  0  0  0  0  0  0
   -1.6130   -2.6850   10.1240 C   0  0  0  0  0  0  0  0  0  0  0  0
   -0.8810   -1.6420   12.3120 C   0  0  0  0  0  0  0  0  0  0  0  0
   -0.8690   -0.1130   12.4120 C   0  0  0  0  0  0  0  0  0  0  0  0
   -1.9600    0.4380   13.3030 C   0  0  0  0  0  0  0  0  0  0  0  0
   -3.0250    0.8690   12.8720 O   0  0  0  0  0  0  0  0  0  0  0  0
   -1.5820    0.4070   14.6090 O   0  0  0  0  0  0  0  0  0  0  0  0
   -1.6960    1.6430   15.3320 C   0  0  0  0  0  0  0  0  0  0  0  0
   -2.5210    1.4360   16.6140 C   0  0  0  0  0  0  0  0  0  0  0  0
   -3.7120    2.2960   16.7270 N   0  0  0  0  0  0  0  0  0  0  0  0
   -3.7340    3.1200   17.9560 C   0  0  0  0  0  0  0  0  0  0  0  0
   -3.3680    4.5940   17.7170 C   0  0  0  0  0  0  0  0  0  0  0  0
   -4.2250    5.2480   16.7720 O   0  0  0  0  0  0  0  0  0  0  0  0
   -4.7720    4.3510   15.7950 C   0  0  0  0  0  0  0  0  0  0  0  0
   -3.8610    3.1440   15.5260 C   0  0  0  0  0  0  0  0  0  0  0  0
   -5.5700   -0.7630   11.7190 O   0  0  0  0  0  0  0  0  0  0  0  0
   -8.1438   -4.9538   15.4079 H   0  0  0  0  0  0  0  0  0  0  0  0
   -9.2922   -5.0979   14.0342 H   0  0  0  0  0  0  0  0  0  0  0  0
   -7.7680   -6.0485   14.0342 H   0  0  0  0  0  0  0  0  0  0  0  0
  -10.1917   -2.6769   13.7926 H   0  0  0  0  0  0  0  0  0  0  0  0
   -9.3582   -2.2988   15.2910 H   0  0  0  0  0  0  0  0  0  0  0  0
   -6.9801   -6.9848   12.1398 H   0  0  0  0  0  0  0  0  0  0  0  0
   -6.9789   -5.5044   11.1225 H   0  0  0  0  0  0  0  0  0  0  0  0
   -5.5518   -6.5953   11.1225 H   0  0  0  0  0  0  0  0  0  0  0  0
   -4.1049   -4.4047   11.5177 H   0  0  0  0  0  0  0  0  0  0  0  0
   -4.5223   -3.0230   10.4337 H   0  0  0  0  0  0  0  0  0  0  0  0
   -3.4128   -2.0820   13.0431 H   0  0  0  0  0  0  0  0  0  0  0  0
   -0.8359   -3.4621   10.1712 H   0  0  0  0  0  0  0  0  0  0  0  0
   -2.4914   -3.0768    9.5902 H   0  0  0  0  0  0  0  0  0  0  0  0
   -1.2212   -1.8066    9.5902 H   0  0  0  0  0  0  0  0  0  0  0  0
   -0.9277   -2.0386   13.3369 H   0  0  0  0  0  0  0  0  0  0  0  0
    0.0312   -1.8927   11.7507 H   0  0  0  0  0  0  0  0  0  0  0  0
    0.1042    0.2026   12.8161 H   0  0  0  0  0  0  0  0  0  0  0  0
   -1.0456    0.2806   11.4001 H   0  0  0  0  0  0  0  0  0  0  0  0
   -0.6910    2.0005   15.6007 H   0  0  0  0  0  0  0  0  0  0  0  0
   -2.2017    2.3847   14.6963 H   0  0  0  0  0  0  0  0  0  0  0  0
   -2.8520    0.3874   16.6425 H   0  0  0  0  0  0  0  0  0  0  0  0
   -1.8629    1.7060   17.4531 H   0  0  0  0  0  0  0  0  0  0  0  0
   -4.7464    3.0783   18.3842 H   0  0  0  0  0  0  0  0  0  0  0  0
   -2.9743    2.7056   18.6351 H   0  0  0  0  0  0  0  0  0  0  0  0
   -3.4336    5.1293   18.6757 H   0  0  0  0  0  0  0  0  0  0  0  0
   -2.3506    4.6121   17.2991 H   0  0  0  0  0  0  0  0  0  0  0  0
   -5.7438    3.9850   16.1577 H   0  0  0  0  0  0  0  0  0  0  0  0
   -4.8746    4.9078   14.8519 H   0  0  0  0  0  0  0  0  0  0  0  0
   -4.2969    2.5414   14.7155 H   0  0  0  0  0  0  0  0  0  0  0  0
   -2.8662    3.5199   15.2449 H   0  0  0  0  0  0  0  0  0  0  0  0
   -4.7060   -0.9017   11.2560 H   0  0  0  0  0  0  0  0  0  0  0  0
  1  2  1  0
  2  3  2  0
  3  4  1  0
  4  5  1  0
  5  6  1  0
  6  7  2  0
  6  8  1  0
  8  9  2  0
  9 10  1  0
 10 11  2  0
 11 12  1  0
 12 13  1  0
 10 14  1  0
 14 15  1  0
 15 16  2  0
 16 17  1  0
 16 18  1  0
 18 19  1  0
 19 20  1  0
 20 21  2  0
 20 22  1  0
 22 23  1  0
 23 24  1  0
 24 25  1  0
 25 26  1  0
 26 27  1  0
 27 28  1  0
 28 29  1  0
 29 30  1  0
  9 31  1  0
 11  2  1  0
  8  3  1  0
 30 25  1  0
  1 32  1  0
  1 33  1  0
  1 34  1  0
  4 35  1  0
  4 36  1  0
 13 37  1  0
 13 38  1  0
 13 39  1  0
 14 40  1  0
 14 41  1  0
 15 42  1  0
 17 43  1  0
 17 44  1  0
 17 45  1  0
 18 46  1  0
 18 47  1  0
 19 48  1  0
 19 49  1  0
 23 50  1  0
 23 51  1  0
 24 52  1  0
 24 53  1  0
 26 54  1  0
 26 55  1  0
 27 56  1  0
 27 57  1  0
 29 58  1  0
 29 59  1  0
 30 60  1  0
 30 61  1  0
 31 62  1  0
M  END
