
     RDKit          3D

 29 30  0  0  0  0  0  0  0  0999 V2000
 -128.9160   69.5820   36.6450 C   0  0  0  0  0  0  0  0  0  0  0  0
 -128.6320   68.3280   36.0900 C   0  0  0  0  0  0  0  0  0  0  0  0
 -128.2790   67.2460   36.9040 C   0  0  0  0  0  0  0  0  0  0  0  0
 -128.2150   67.4490   38.2980 C   0  0  0  0  0  0  0  0  0  0  0  0
 -128.4960   68.6950   38.8640 C   0  0  0  0  0  0  0  0  0  0  0  0
 -128.8460   69.7600   38.0300 C   0  0  0  0  0  0  0  0  0  0  0  0
 -129.1430   71.0740   38.6130 N   0  0  0  0  0  0  0  0  0  0  0  0
 -128.3460   71.9960   38.3930 O   0  0  0  0  0  0  0  0  0  0  0  0
 -130.1740   71.1820   39.2920 O   0  0  0  0  0  0  0  0  0  0  0  0
 -127.7870   66.1590   39.3720 Cl  0  0  0  0  0  0  0  0  0  0  0  0
 -127.9840   65.9600   36.3940 N   0  0  0  0  0  0  0  0  0  0  0  0
 -128.8500   64.9200   36.1260 C   0  0  0  0  0  0  0  0  0  0  0  0
 -130.0650   64.9490   36.2980 O   0  0  0  0  0  0  0  0  0  0  0  0
 -128.2370   63.6590   35.5820 C   0  0  0  0  0  0  0  0  0  0  0  0
 -128.9560   62.6200   34.9670 C   0  0  0  0  0  0  0  0  0  0  0  0
 -128.3030   61.4810   34.4870 C   0  0  0  0  0  0  0  0  0  0  0  0
 -126.9180   61.3680   34.6150 C   0  0  0  0  0  0  0  0  0  0  0  0
 -126.1940   62.3910   35.2220 C   0  0  0  0  0  0  0  0  0  0  0  0
 -126.8420   63.5280   35.7020 C   0  0  0  0  0  0  0  0  0  0  0  0
 -124.4870   62.2470   35.3780 Cl  0  0  0  0  0  0  0  0  0  0  0  0
 -130.3170   62.7000   34.8250 O   0  0  0  0  0  0  0  0  0  0  0  0
 -129.1932   70.4239   35.9936 H   0  0  0  0  0  0  0  0  0  0  0  0
 -128.6872   68.1918   34.9999 H   0  0  0  0  0  0  0  0  0  0  0  0
 -128.4423   68.8360   39.9536 H   0  0  0  0  0  0  0  0  0  0  0  0
 -126.9901   65.7754   36.1964 H   0  0  0  0  0  0  0  0  0  0  0  0
 -128.8798   60.6753   34.0093 H   0  0  0  0  0  0  0  0  0  0  0  0
 -126.4000   60.4740   34.2377 H   0  0  0  0  0  0  0  0  0  0  0  0
 -126.2576   64.3290   36.1784 H   0  0  0  0  0  0  0  0  0  0  0  0
 -130.8135   61.9621   34.3901 H   0  0  0  0  0  0  0  0  0  0  0  0
  1  2  2  0
  2  3  1  0
  3  4  2  0
  4  5  1  0
  5  6  2  0
  6  7  1  0
  7  8  2  0
  7  9  1  0
  4 10  1  0
  3 11  1  0
 11 12  1  0
 12 13  2  0
 12 14  1  0
 14 15  2  0
 15 16  1  0
 16 17  2  0
 17 18  1  0
 18 19  2  0
 18 20  1  0
 15 21  1  0
  6  1  1  0
 19 14  1  0
  1 22  1  0
  2 23  1  0
  5 24  1  0
 11 25  1  0
 16 26  1  0
 17 27  1  0
 19 28  1  0
 21 29  1  0
M  CHG  2   7   1   9  -1
M  END
