
     RDKit          3D

 33 34  0  0  0  0  0  0  0  0999 V2000
   -5.3330    5.9520   17.1400 C   0  0  0  0  0  0  0  0  0  0  0  0
   -5.4750    4.6730   17.9630 C   0  0  2  0  0  0  0  0  0  0  0  0
   -5.1730    3.4530   17.0800 C   0  0  0  0  0  0  0  0  0  0  0  0
   -3.7800    3.0620   17.1770 N   0  0  0  0  0  0  0  0  0  0  0  0
   -2.9830    3.1830   18.2820 C   0  0  0  0  0  0  0  0  0  0  0  0
   -1.7460    2.8070   18.0350 N   0  0  0  0  0  0  0  0  0  0  0  0
   -1.7540    2.4090   16.7120 C   0  0  0  0  0  0  0  0  0  0  0  0
   -0.7550    1.9060   15.8620 C   0  0  0  0  0  0  0  0  0  0  0  0
   -1.0920    1.5810   14.5920 N   0  0  0  0  0  0  0  0  0  0  0  0
   -2.3670    1.7840   14.1930 C   0  0  0  0  0  0  0  0  0  0  0  0
   -3.4020    2.2730   14.9080 N   0  0  0  0  0  0  0  0  0  0  0  0
   -3.0180    2.5550   16.1630 C   0  0  0  0  0  0  0  0  0  0  0  0
    0.5590    1.7110   16.2640 N   0  0  0  0  0  0  0  0  0  0  0  0
   -6.8200    4.5370   18.4470 O   0  0  0  0  0  0  0  0  0  0  0  0
   -6.9080    4.4630   19.8770 C   0  0  0  0  0  0  0  0  0  0  0  0
   -7.6890    5.9850   20.4430 P   0  0  0  0  0  0  0  0  0  0  0  0
   -7.2520    7.2540   19.7920 O   0  0  0  0  0  0  0  0  0  0  0  0
   -7.4940    5.9690   22.0350 O   0  0  0  0  0  0  0  0  0  0  0  0
   -9.2660    5.7020   20.3330 O   0  0  0  0  0  0  0  0  0  0  0  0
   -5.2373    6.8144   17.8161 H   0  0  0  0  0  0  0  0  0  0  0  0
   -4.4371    5.8822   16.5056 H   0  0  0  0  0  0  0  0  0  0  0  0
   -6.2224    6.0804   16.5056 H   0  0  0  0  0  0  0  0  0  0  0  0
   -4.7717    4.7292   18.8070 H   0  0  0  0  0  0  0  0  0  0  0  0
   -5.8042    2.6121   17.4033 H   0  0  0  0  0  0  0  0  0  0  0  0
   -5.3856    3.7210   16.0345 H   0  0  0  0  0  0  0  0  0  0  0  0
   -3.3331    3.5498   19.2581 H   0  0  0  0  0  0  0  0  0  0  0  0
   -2.5904    1.5158   13.1498 H   0  0  0  0  0  0  0  0  0  0  0  0
    1.2514    1.3389   15.5984 H   0  0  0  0  0  0  0  0  0  0  0  0
    0.8418    1.9384   17.2280 H   0  0  0  0  0  0  0  0  0  0  0  0
   -7.5158    3.5951   20.1727 H   0  0  0  0  0  0  0  0  0  0  0  0
   -5.9096    4.3472   20.3239 H   0  0  0  0  0  0  0  0  0  0  0  0
   -8.3772    6.0415   22.4764 H   0  0  0  0  0  0  0  0  0  0  0  0
   -9.6530    5.6326   21.2416 H   0  0  0  0  0  0  0  0  0  0  0  0
  1  2  1  0
  2  3  1  0
  3  4  1  0
  4  5  1  0
  5  6  2  0
  6  7  1  0
  7  8  2  0
  8  9  1  0
  9 10  2  0
 10 11  1  0
 11 12  2  0
  8 13  1  0
  2 14  1  0
 14 15  1  0
 15 16  1  0
 16 17  2  0
 16 18  1  0
 16 19  1  0
 12  4  1  0
 12  7  1  0
  1 20  1  0
  1 21  1  0
  1 22  1  0
  2 23  1  1
  3 24  1  0
  3 25  1  0
  5 26  1  0
 10 27  1  0
 13 28  1  0
 13 29  1  0
 15 30  1  0
 15 31  1  0
 18 32  1  0
 19 33  1  0
M  END
