
     RDKit          3D

 41 44  0  0  0  0  0  0  0  0999 V2000
   -1.8630    0.5010   12.0970 C   0  0  0  0  0  0  0  0  0  0  0  0
   -0.5390    1.1320   12.5270 C   0  0  0  0  0  0  0  0  0  0  0  0
   -0.6860    1.4610   14.0090 C   0  0  0  0  0  0  0  0  0  0  0  0
   -2.1960    1.5810   14.2280 C   0  0  0  0  0  0  0  0  0  0  0  0
   -2.7270    0.4410   13.3520 C   0  0  0  0  0  0  0  0  0  0  0  0
   -2.6230    1.4730   15.7080 C   0  0  1  0  0  0  0  0  0  0  0  0
   -1.4680    1.3200   16.7120 C   0  0  0  0  0  0  0  0  0  0  0  0
   -0.6870    2.5460   16.9340 C   0  0  0  0  0  0  0  0  0  0  0  0
   -0.0270    3.4940   17.0420 N   0  0  0  0  0  0  0  0  0  0  0  0
   -3.5170    2.5640   16.0990 N   0  0  0  0  0  0  0  0  0  0  0  0
   -4.1140    2.7320   17.3190 C   0  0  0  0  0  0  0  0  0  0  0  0
   -4.8630    3.8870   17.2280 C   0  0  0  0  0  0  0  0  0  0  0  0
   -4.6680    4.3150   15.8960 C   0  0  0  0  0  0  0  0  0  0  0  0
   -3.8260    3.5270   15.2200 N   0  0  0  0  0  0  0  0  0  0  0  0
   -5.7150    4.4550   18.2470 C   0  0  0  0  0  0  0  0  0  0  0  0
   -5.8310    5.8310   18.4780 C   0  0  0  0  0  0  0  0  0  0  0  0
   -5.3270    7.0490   17.9350 C   0  0  0  0  0  0  0  0  0  0  0  0
   -5.8710    8.0940   18.6530 C   0  0  0  0  0  0  0  0  0  0  0  0
   -6.6980    7.5580   19.6070 N   0  0  0  0  0  0  0  0  0  0  0  0
   -6.6930    6.1940   19.5050 C   0  0  0  0  0  0  0  0  0  0  0  0
   -7.4180    5.3770   20.2830 N   0  0  0  0  0  0  0  0  0  0  0  0
   -7.2370    4.0880   19.9530 C   0  0  0  0  0  0  0  0  0  0  0  0
   -6.4440    3.5850   18.9890 N   0  0  0  0  0  0  0  0  0  0  0  0
   -2.3489    1.1190   11.3276 H   0  0  0  0  0  0  0  0  0  0  0  0
   -1.7111   -0.4988   11.6642 H   0  0  0  0  0  0  0  0  0  0  0  0
    0.2885    0.4236   12.3739 H   0  0  0  0  0  0  0  0  0  0  0  0
   -0.3138    2.0326   11.9369 H   0  0  0  0  0  0  0  0  0  0  0  0
   -0.2661    0.6555   14.6294 H   0  0  0  0  0  0  0  0  0  0  0  0
   -0.1489    2.3794   14.2884 H   0  0  0  0  0  0  0  0  0  0  0  0
   -2.5985    2.5685   13.9581 H   0  0  0  0  0  0  0  0  0  0  0  0
   -2.6109   -0.5279   13.8597 H   0  0  0  0  0  0  0  0  0  0  0  0
   -3.7996    0.5438   13.1307 H   0  0  0  0  0  0  0  0  0  0  0  0
   -3.1758    0.5234   15.7591 H   0  0  0  0  0  0  0  0  0  0  0  0
   -1.8909    1.0026   17.6766 H   0  0  0  0  0  0  0  0  0  0  0  0
   -0.7755    0.5813   16.2822 H   0  0  0  0  0  0  0  0  0  0  0  0
   -4.0161    2.0767   18.1971 H   0  0  0  0  0  0  0  0  0  0  0  0
   -5.1559    5.2003   15.4623 H   0  0  0  0  0  0  0  0  0  0  0  0
   -4.6270    7.1397   17.0913 H   0  0  0  0  0  0  0  0  0  0  0  0
   -5.6765    9.1643   18.4898 H   0  0  0  0  0  0  0  0  0  0  0  0
   -7.2400    8.0999   20.2951 H   0  0  0  0  0  0  0  0  0  0  0  0
   -7.8061    3.3539   20.5423 H   0  0  0  0  0  0  0  0  0  0  0  0
  1  2  1  0
  2  3  1  0
  3  4  1  0
  4  5  1  0
  4  6  1  0
  6  7  1  0
  7  8  1  0
  8  9  3  0
  6 10  1  0
 10 11  1  0
 11 12  2  0
 12 13  1  0
 13 14  2  0
 12 15  1  0
 15 16  2  0
 16 17  1  0
 17 18  2  0
 18 19  1  0
 19 20  1  0
 20 21  2  0
 21 22  1  0
 22 23  2  0
  5  1  1  0
 14 10  1  0
 23 15  1  0
 20 16  1  0
  1 24  1  0
  1 25  1  0
  2 26  1  0
  2 27  1  0
  3 28  1  0
  3 29  1  0
  4 30  1  0
  5 31  1  0
  5 32  1  0
  6 33  1  6
  7 34  1  0
  7 35  1  0
 11 36  1  0
 13 37  1  0
 17 38  1  0
 18 39  1  0
 19 40  1  0
 22 41  1  0
M  END
