
     RDKit          3D

 39 42  0  0  0  0  0  0  0  0999 V2000
   -8.1810   -7.4850   13.0190 C   0  0  0  0  0  0  0  0  0  0  0  0
   -8.6600   -8.0150   14.3390 C   0  0  0  0  0  0  0  0  0  0  0  0
   -7.7710   -6.8050   14.2940 C   0  0  0  0  0  0  0  0  0  0  0  0
   -8.2840   -5.4830   14.6250 N   0  0  0  0  0  0  0  0  0  0  0  0
   -7.6400   -4.3390   14.1200 C   0  0  0  0  0  0  0  0  0  0  0  0
   -8.3760   -3.2860   13.5520 C   0  0  0  0  0  0  0  0  0  0  0  0
   -7.6520   -2.2070   13.0810 C   0  0  0  0  0  0  0  0  0  0  0  0
   -6.3210   -2.0470   13.1150 N   0  0  0  0  0  0  0  0  0  0  0  0
   -5.7050   -3.1090   13.6570 C   0  0  0  0  0  0  0  0  0  0  0  0
   -6.2850   -4.2090   14.1620 N   0  0  0  0  0  0  0  0  0  0  0  0
   -4.3290   -3.0450   13.7490 N   0  0  0  0  0  0  0  0  0  0  0  0
   -8.5900   -1.3420   12.5830 N   0  0  0  0  0  0  0  0  0  0  0  0
   -9.8210   -1.9080   12.7940 C   0  0  0  0  0  0  0  0  0  0  0  0
   -9.7310   -3.0850   13.3760 N   0  0  0  0  0  0  0  0  0  0  0  0
   -8.3000   -0.0480   11.9920 C   0  0  2  0  0  0  0  0  0  0  0  0
   -9.5490    0.8420   11.8890 C   0  0  0  0  0  0  0  0  0  0  0  0
   -9.3900    1.6410   10.5820 C   0  0  1  0  0  0  0  0  0  0  0  0
   -8.4240    0.8020    9.7990 C   0  0  0  0  0  0  0  0  0  0  0  0
   -7.8250   -0.1140   10.5690 C   0  0  0  0  0  0  0  0  0  0  0  0
  -10.7200    1.8740    9.8650 C   0  0  0  0  0  0  0  0  0  0  0  0
  -10.4990    2.3290    8.5350 O   0  0  0  0  0  0  0  0  0  0  0  0
   -7.4405   -8.0513   12.4351 H   0  0  0  0  0  0  0  0  0  0  0  0
   -8.6688   -7.1620   12.0875 H   0  0  0  0  0  0  0  0  0  0  0  0
   -9.7176   -7.9101   14.6226 H   0  0  0  0  0  0  0  0  0  0  0  0
   -8.6207   -8.9905   14.8459 H   0  0  0  0  0  0  0  0  0  0  0  0
   -6.8133   -6.5293   14.7595 H   0  0  0  0  0  0  0  0  0  0  0  0
   -9.1147   -5.3861   15.2262 H   0  0  0  0  0  0  0  0  0  0  0  0
   -3.8030   -3.8312   14.1564 H   0  0  0  0  0  0  0  0  0  0  0  0
   -3.8284   -2.2110   13.4102 H   0  0  0  0  0  0  0  0  0  0  0  0
  -10.7721   -1.4339   12.5101 H   0  0  0  0  0  0  0  0  0  0  0  0
   -7.5268    0.3477   12.6670 H   0  0  0  0  0  0  0  0  0  0  0  0
  -10.4578    0.2234   11.8514 H   0  0  0  0  0  0  0  0  0  0  0  0
   -9.6447    1.5068   12.7602 H   0  0  0  0  0  0  0  0  0  0  0  0
   -9.0252    2.6667   10.7397 H   0  0  0  0  0  0  0  0  0  0  0  0
   -8.2315    0.9248    8.7230 H   0  0  0  0  0  0  0  0  0  0  0  0
   -7.0742   -0.8299   10.2032 H   0  0  0  0  0  0  0  0  0  0  0  0
  -11.2847    0.9305    9.8352 H   0  0  0  0  0  0  0  0  0  0  0  0
  -11.2883    2.6405   10.4122 H   0  0  0  0  0  0  0  0  0  0  0  0
  -10.0666    3.2193    8.5584 H   0  0  0  0  0  0  0  0  0  0  0  0
  1  2  1  0
  2  3  1  0
  3  4  1  0
  4  5  1  0
  5  6  2  0
  6  7  1  0
  7  8  2  0
  8  9  1  0
  9 10  2  0
  9 11  1  0
  7 12  1  0
 12 13  1  0
 13 14  2  0
 12 15  1  0
 15 16  1  0
 16 17  1  0
 17 18  1  0
 18 19  2  0
 17 20  1  0
 20 21  1  0
  3  1  1  0
 10  5  1  0
 14  6  1  0
 19 15  1  0
  1 22  1  0
  1 23  1  0
  2 24  1  0
  2 25  1  0
  3 26  1  0
  4 27  1  0
 11 28  1  0
 11 29  1  0
 13 30  1  0
 15 31  1  1
 16 32  1  0
 16 33  1  0
 17 34  1  1
 18 35  1  0
 19 36  1  0
 20 37  1  0
 20 38  1  0
 21 39  1  0
M  END
