
     RDKit          3D

 52 54  0  0  0  0  0  0  0  0999 V2000
   -7.9560   76.1120   20.3780 C   0  0  0  0  0  0  0  0  0  0  0  0
   -7.5410   74.9780   21.1270 O   0  0  0  0  0  0  0  0  0  0  0  0
   -6.4230   74.3070   20.5460 C   0  0  0  0  0  0  0  0  0  0  0  0
   -5.4530   73.7910   21.6090 C   0  0  0  0  0  0  0  0  0  0  0  0
   -6.2080   73.3370   22.7280 O   0  0  0  0  0  0  0  0  0  0  0  0
   -5.5530   72.6200   23.6960 C   0  0  0  0  0  0  0  0  0  0  0  0
   -4.8470   73.3680   24.6510 C   0  0  0  0  0  0  0  0  0  0  0  0
   -4.1530   72.7030   25.6650 C   0  0  0  0  0  0  0  0  0  0  0  0
   -4.1280   71.3170   25.7540 C   0  0  0  0  0  0  0  0  0  0  0  0
   -4.8090   70.5600   24.7940 C   0  0  0  0  0  0  0  0  0  0  0  0
   -5.5290   71.2260   23.7680 C   0  0  0  0  0  0  0  0  0  0  0  0
   -4.7230   69.1610   24.9470 C   0  0  0  0  0  0  0  0  0  0  0  0
   -4.0510   68.5980   25.9670 N   0  0  0  0  0  0  0  0  0  0  0  0
   -3.4480   69.4260   26.8230 C   0  0  0  0  0  0  0  0  0  0  0  0
   -3.4470   70.7610   26.7600 N   0  0  0  0  0  0  0  0  0  0  0  0
   -5.3450   68.3270   23.9790 N   0  0  0  0  0  0  0  0  0  0  0  0
   -5.6270   66.9430   24.0660 C   0  0  0  0  0  0  0  0  0  0  0  0
   -6.4280   66.4790   25.1200 C   0  0  0  0  0  0  0  0  0  0  0  0
   -6.6820   65.1140   25.2890 C   0  0  0  0  0  0  0  0  0  0  0  0
   -6.1140   64.1880   24.4160 C   0  0  0  0  0  0  0  0  0  0  0  0
   -5.2840   64.6270   23.3850 C   0  0  0  0  0  0  0  0  0  0  0  0
   -5.0340   65.9950   23.2220 C   0  0  0  0  0  0  0  0  0  0  0  0
   -4.6800   63.6780   22.5010 C   0  0  0  0  0  0  0  0  0  0  0  0
   -4.1730   62.8810   21.7590 C   0  0  0  0  0  0  0  0  0  0  0  0
   -4.9160   74.7300   24.5100 O   0  0  0  0  0  0  0  0  0  0  0  0
   -5.4530   75.5320   25.5660 C   0  0  0  0  0  0  0  0  0  0  0  0
   -6.7440   76.2480   25.1560 C   0  0  0  0  0  0  0  0  0  0  0  0
   -7.7720   75.3540   24.7120 O   0  0  0  0  0  0  0  0  0  0  0  0
   -8.1870   74.4300   25.7090 C   0  0  0  0  0  0  0  0  0  0  0  0
   -8.2510   76.9180   21.0661 H   0  0  0  0  0  0  0  0  0  0  0  0
   -7.1257   76.4566   19.7441 H   0  0  0  0  0  0  0  0  0  0  0  0
   -8.8126   75.8393   19.7441 H   0  0  0  0  0  0  0  0  0  0  0  0
   -6.7880   73.4549   19.9538 H   0  0  0  0  0  0  0  0  0  0  0  0
   -5.8839   75.0274   19.9132 H   0  0  0  0  0  0  0  0  0  0  0  0
   -4.8611   72.9595   21.1988 H   0  0  0  0  0  0  0  0  0  0  0  0
   -4.7692   74.5956   21.9173 H   0  0  0  0  0  0  0  0  0  0  0  0
   -3.6097   73.2953   26.4160 H   0  0  0  0  0  0  0  0  0  0  0  0
   -6.0761   70.6351   23.0186 H   0  0  0  0  0  0  0  0  0  0  0  0
   -2.9004   68.9663   27.6589 H   0  0  0  0  0  0  0  0  0  0  0  0
   -5.6264   68.7887   23.1023 H   0  0  0  0  0  0  0  0  0  0  0  0
   -6.8639   67.2013   25.8259 H   0  0  0  0  0  0  0  0  0  0  0  0
   -7.3293   64.7718   26.1099 H   0  0  0  0  0  0  0  0  0  0  0  0
   -6.3197   63.1145   24.5398 H   0  0  0  0  0  0  0  0  0  0  0  0
   -4.3615   66.3306   22.4188 H   0  0  0  0  0  0  0  0  0  0  0  0
   -3.7087   62.1511   21.0795 H   0  0  0  0  0  0  0  0  0  0  0  0
   -5.6671   74.8835   26.4284 H   0  0  0  0  0  0  0  0  0  0  0  0
   -4.7074   76.3012   25.8158 H   0  0  0  0  0  0  0  0  0  0  0  0
   -7.1212   76.8109   26.0225 H   0  0  0  0  0  0  0  0  0  0  0  0
   -6.4968   76.9059   24.3098 H   0  0  0  0  0  0  0  0  0  0  0  0
   -7.9960   74.8553   26.7053 H   0  0  0  0  0  0  0  0  0  0  0  0
   -9.2624   74.2278   25.5967 H   0  0  0  0  0  0  0  0  0  0  0  0
   -7.6238   73.4918   25.5967 H   0  0  0  0  0  0  0  0  0  0  0  0
  1  2  1  0
  2  3  1  0
  3  4  1  0
  4  5  1  0
  5  6  1  0
  6  7  2  0
  7  8  1  0
  8  9  2  0
  9 10  1  0
 10 11  2  0
 10 12  1  0
 12 13  2  0
 13 14  1  0
 14 15  2  0
 12 16  1  0
 16 17  1  0
 17 18  2  0
 18 19  1  0
 19 20  2  0
 20 21  1  0
 21 22  2  0
 21 23  1  0
 23 24  3  0
  7 25  1  0
 25 26  1  0
 26 27  1  0
 27 28  1  0
 28 29  1  0
 11  6  1  0
 15  9  1  0
 22 17  1  0
  1 30  1  0
  1 31  1  0
  1 32  1  0
  3 33  1  0
  3 34  1  0
  4 35  1  0
  4 36  1  0
  8 37  1  0
 11 38  1  0
 14 39  1  0
 16 40  1  0
 18 41  1  0
 19 42  1  0
 20 43  1  0
 22 44  1  0
 24 45  1  0
 26 46  1  0
 26 47  1  0
 27 48  1  0
 27 49  1  0
 29 50  1  0
 29 51  1  0
 29 52  1  0
M  END
