
     RDKit          3D

 50 50  0  0  0  0  0  0  0  0999 V2000
  -20.9640   71.4780   20.2420 C   0  0  0  0  0  0  0  0  0  0  0  0
  -20.6940   72.8250   19.5910 C   0  0  0  0  0  0  0  0  0  0  0  0
  -21.1280   72.8980   18.1180 C   0  0  0  0  0  0  0  0  0  0  0  0
  -21.8970   74.1780   17.7480 C   0  0  0  0  0  0  0  0  0  0  0  0
  -21.7050   74.6370   16.3080 C   0  0  0  0  0  0  0  0  0  0  0  0
  -19.9650   72.8500   17.2760 O   0  0  0  0  0  0  0  0  0  0  0  0
  -19.6050   71.5320   16.8320 C   0  0  2  0  0  0  0  0  0  0  0  0
  -18.6600   71.7580   15.6850 C   0  0  0  0  0  0  0  0  0  0  0  0
  -19.1140   72.0100   14.4440 C   0  0  0  0  0  0  0  0  0  0  0  0
  -20.5990   72.0400   14.2090 C   0  0  0  0  0  0  0  0  0  0  0  0
  -21.3050   70.8820   14.9340 C   0  0  2  0  0  0  0  0  0  0  0  0
  -20.8830   70.7260   16.4390 C   0  0  1  0  0  0  0  0  0  0  0  0
  -20.7590   69.2920   16.7510 N   0  0  0  0  0  0  0  0  0  0  0  0
  -21.6880   68.5900   17.4710 C   0  0  0  0  0  0  0  0  0  0  0  0
  -22.6530   69.1090   18.0210 O   0  0  0  0  0  0  0  0  0  0  0  0
  -21.4300   67.1090   17.5400 C   0  0  0  0  0  0  0  0  0  0  0  0
  -21.1220   69.6040   14.1780 N   0  0  0  0  0  0  0  0  0  0  0  0
  -18.2250   72.2650   13.2810 C   0  0  0  0  0  0  0  0  0  0  0  0
  -18.3150   73.2610   12.5810 O   0  0  0  0  0  0  0  0  0  0  0  0
  -17.3400   71.2520   13.1070 O   0  0  0  0  0  0  0  0  0  0  0  0
  -17.8670   70.0540   12.5200 C   0  0  0  0  0  0  0  0  0  0  0  0
  -17.5530   68.8600   13.4010 C   0  0  0  0  0  0  0  0  0  0  0  0
  -20.9418   71.5886   21.3362 H   0  0  0  0  0  0  0  0  0  0  0  0
  -21.9534   71.1119   19.9304 H   0  0  0  0  0  0  0  0  0  0  0  0
  -20.1921   70.7589   19.9304 H   0  0  0  0  0  0  0  0  0  0  0  0
  -21.2398   73.5976   20.1525 H   0  0  0  0  0  0  0  0  0  0  0  0
  -19.6052   72.9801   19.6132 H   0  0  0  0  0  0  0  0  0  0  0  0
  -21.8025   72.0421   17.9681 H   0  0  0  0  0  0  0  0  0  0  0  0
  -22.9693   73.9933   17.9096 H   0  0  0  0  0  0  0  0  0  0  0  0
  -21.4971   74.9788   18.3873 H   0  0  0  0  0  0  0  0  0  0  0  0
  -21.2805   75.6518   16.3001 H   0  0  0  0  0  0  0  0  0  0  0  0
  -21.0194   73.9487   15.7921 H   0  0  0  0  0  0  0  0  0  0  0  0
  -22.6765   74.6419   15.7921 H   0  0  0  0  0  0  0  0  0  0  0  0
  -19.1195   70.9242   17.6097 H   0  0  0  0  0  0  0  0  0  0  0  0
  -17.5755   71.7165   15.8640 H   0  0  0  0  0  0  0  0  0  0  0  0
  -21.0011   72.9937   14.5814 H   0  0  0  0  0  0  0  0  0  0  0  0
  -20.7810   71.9349   13.1293 H   0  0  0  0  0  0  0  0  0  0  0  0
  -22.3754   71.1345   14.9575 H   0  0  0  0  0  0  0  0  0  0  0  0
  -21.6754   71.1735   17.0570 H   0  0  0  0  0  0  0  0  0  0  0  0
  -19.9276   68.7896   16.4087 H   0  0  0  0  0  0  0  0  0  0  0  0
  -21.3753   66.7950   18.5928 H   0  0  0  0  0  0  0  0  0  0  0  0
  -22.2479   66.5706   17.0388 H   0  0  0  0  0  0  0  0  0  0  0  0
  -20.4782   66.8789   17.0388 H   0  0  0  0  0  0  0  0  0  0  0  0
  -21.0104   68.8250   14.8425 H   0  0  0  0  0  0  0  0  0  0  0  0
  -21.9473   69.4344   13.5855 H   0  0  0  0  0  0  0  0  0  0  0  0
  -18.9575   70.1505   12.4132 H   0  0  0  0  0  0  0  0  0  0  0  0
  -17.4059   69.9040   11.5326 H   0  0  0  0  0  0  0  0  0  0  0  0
  -17.6303   69.1540   14.4582 H   0  0  0  0  0  0  0  0  0  0  0  0
  -18.2691   68.0516   13.1919 H   0  0  0  0  0  0  0  0  0  0  0  0
  -16.5319   68.5085   13.1919 H   0  0  0  0  0  0  0  0  0  0  0  0
  1  2  1  0
  2  3  1  0
  3  4  1  0
  4  5  1  0
  3  6  1  0
  6  7  1  0
  7  8  1  0
  8  9  2  0
  9 10  1  0
 10 11  1  0
 11 12  1  0
 12 13  1  0
 13 14  1  0
 14 15  2  0
 14 16  1  0
 11 17  1  0
  9 18  1  0
 18 19  2  0
 18 20  1  0
 20 21  1  0
 21 22  1  0
 12  7  1  0
  1 23  1  0
  1 24  1  0
  1 25  1  0
  2 26  1  0
  2 27  1  0
  3 28  1  0
  4 29  1  0
  4 30  1  0
  5 31  1  0
  5 32  1  0
  5 33  1  0
  7 34  1  1
  8 35  1  0
 10 36  1  0
 10 37  1  0
 11 38  1  6
 12 39  1  1
 13 40  1  0
 16 41  1  0
 16 42  1  0
 16 43  1  0
 17 44  1  0
 17 45  1  0
 21 46  1  0
 21 47  1  0
 22 48  1  0
 22 49  1  0
 22 50  1  0
M  END
