
     RDKit          3D

 46 47  0  0  0  0  0  0  0  0999 V2000
   -8.7170   63.6220   23.0470 C   0  0  0  0  0  0  0  0  0  0  0  0
   -8.2490   62.4680   23.9250 C   0  0  0  0  0  0  0  0  0  0  0  0
   -8.3540   61.1440   23.1780 C   0  0  0  0  0  0  0  0  0  0  0  0
   -6.8710   62.7230   24.2580 O   0  0  0  0  0  0  0  0  0  0  0  0
   -6.6020   63.9290   24.8510 C   0  0  0  0  0  0  0  0  0  0  0  0
   -7.2270   64.3690   25.8090 O   0  0  0  0  0  0  0  0  0  0  0  0
   -5.4150   64.6350   24.1440 C   0  0  0  0  0  0  0  0  0  0  0  0
   -4.3450   64.8890   25.2140 C   0  0  0  0  0  0  0  0  0  0  0  0
   -4.9620   63.7130   23.0050 C   0  0  0  0  0  0  0  0  0  0  0  0
   -5.9890   65.8560   23.6500 O   0  0  0  0  0  0  0  0  0  0  0  0
   -5.5910   67.1130   23.9710 C   0  0  0  0  0  0  0  0  0  0  0  0
   -5.9860   67.8820   25.0610 C   0  0  0  0  0  0  0  0  0  0  0  0
   -5.4680   69.1730   25.2470 C   0  0  0  0  0  0  0  0  0  0  0  0
   -4.5390   69.6970   24.3420 C   0  0  0  0  0  0  0  0  0  0  0  0
   -4.1570   68.9400   23.2350 C   0  0  0  0  0  0  0  0  0  0  0  0
   -4.6750   67.6560   23.0610 C   0  0  0  0  0  0  0  0  0  0  0  0
   -3.9800   71.0620   24.5000 C   0  0  0  0  0  0  0  0  0  0  0  0
   -2.7630   71.2230   24.4540 O   0  0  0  0  0  0  0  0  0  0  0  0
   -4.8570   72.2420   24.7100 C   0  0  0  0  0  0  0  0  0  0  0  0
   -5.1500   72.7220   25.9940 C   0  0  0  0  0  0  0  0  0  0  0  0
   -5.9680   73.8450   26.1480 C   0  0  0  0  0  0  0  0  0  0  0  0
   -6.4800   74.4920   25.0230 C   0  0  0  0  0  0  0  0  0  0  0  0
   -6.1760   74.0320   23.7430 C   0  0  0  0  0  0  0  0  0  0  0  0
   -5.3590   72.9090   23.5860 C   0  0  0  0  0  0  0  0  0  0  0  0
   -7.4870   75.8730   25.2190 Cl  0  0  0  0  0  0  0  0  0  0  0  0
   -9.0542   64.4535   23.6833 H   0  0  0  0  0  0  0  0  0  0  0  0
   -7.8850   63.9603   22.4119 H   0  0  0  0  0  0  0  0  0  0  0  0
   -9.5496   63.2853   22.4119 H   0  0  0  0  0  0  0  0  0  0  0  0
   -8.8755   62.3973   24.8264 H   0  0  0  0  0  0  0  0  0  0  0  0
   -8.4195   60.3186   23.9022 H   0  0  0  0  0  0  0  0  0  0  0  0
   -9.2545   61.1498   22.5463 H   0  0  0  0  0  0  0  0  0  0  0  0
   -7.4638   61.0078   22.5463 H   0  0  0  0  0  0  0  0  0  0  0  0
   -4.7930   64.7827   26.2130 H   0  0  0  0  0  0  0  0  0  0  0  0
   -3.5300   64.1594   25.0980 H   0  0  0  0  0  0  0  0  0  0  0  0
   -3.9449   65.9071   25.0980 H   0  0  0  0  0  0  0  0  0  0  0  0
   -4.5141   62.8014   23.4273 H   0  0  0  0  0  0  0  0  0  0  0  0
   -5.8296   63.4421   22.3854 H   0  0  0  0  0  0  0  0  0  0  0  0
   -4.2174   64.2343   22.3854 H   0  0  0  0  0  0  0  0  0  0  0  0
   -6.7098   67.4751   25.7825 H   0  0  0  0  0  0  0  0  0  0  0  0
   -5.7938   69.7752   26.1079 H   0  0  0  0  0  0  0  0  0  0  0  0
   -3.4496   69.3537   22.5012 H   0  0  0  0  0  0  0  0  0  0  0  0
   -4.3581   67.0592   22.1930 H   0  0  0  0  0  0  0  0  0  0  0  0
   -4.7369   72.2158   26.8789 H   0  0  0  0  0  0  0  0  0  0  0  0
   -6.2077   74.2180   27.1547 H   0  0  0  0  0  0  0  0  0  0  0  0
   -6.5775   74.5507   22.8599 H   0  0  0  0  0  0  0  0  0  0  0  0
   -5.1098   72.5484   22.5771 H   0  0  0  0  0  0  0  0  0  0  0  0
  1  2  1  0
  2  3  1  0
  2  4  1  0
  4  5  1  0
  5  6  2  0
  5  7  1  0
  7  8  1  0
  7  9  1  0
  7 10  1  0
 10 11  1  0
 11 12  2  0
 12 13  1  0
 13 14  2  0
 14 15  1  0
 15 16  2  0
 14 17  1  0
 17 18  2  0
 17 19  1  0
 19 20  2  0
 20 21  1  0
 21 22  2  0
 22 23  1  0
 23 24  2  0
 22 25  1  0
 16 11  1  0
 24 19  1  0
  1 26  1  0
  1 27  1  0
  1 28  1  0
  2 29  1  0
  3 30  1  0
  3 31  1  0
  3 32  1  0
  8 33  1  0
  8 34  1  0
  8 35  1  0
  9 36  1  0
  9 37  1  0
  9 38  1  0
 12 39  1  0
 13 40  1  0
 15 41  1  0
 16 42  1  0
 20 43  1  0
 21 44  1  0
 23 45  1  0
 24 46  1  0
M  END
