
     RDKit          3D

 33 34  0  0  0  0  0  0  0  0999 V2000
   -0.6650    0.4940   11.3790 C   0  0  0  0  0  0  0  0  0  0  0  0
   -1.2360   -0.5490   12.3310 C   0  0  0  0  0  0  0  0  0  0  0  0
   -1.8850    0.0450   13.5820 C   0  0  0  0  0  0  0  0  0  0  0  0
   -1.0790    1.5990   14.1010 S   0  0  0  0  0  0  0  0  0  0  0  0
   -2.1000    1.9960   15.5130 C   0  0  0  0  0  0  0  0  0  0  0  0
   -3.3430    2.6100   15.3020 C   0  0  0  0  0  0  0  0  0  0  0  0
   -4.1410    2.9150   16.4130 C   0  0  0  0  0  0  0  0  0  0  0  0
   -3.6870    2.5920   17.6880 C   0  0  0  0  0  0  0  0  0  0  0  0
   -2.4620    1.9700   17.9320 C   0  0  0  0  0  0  0  0  0  0  0  0
   -1.6770    1.6760   16.8100 C   0  0  0  0  0  0  0  0  0  0  0  0
   -4.6920    3.0160   18.5170 N   0  0  0  0  0  0  0  0  0  0  0  0
   -5.6840    3.5630   17.7440 C   0  0  0  0  0  0  0  0  0  0  0  0
   -5.3770    3.5150   16.4700 N   0  0  0  0  0  0  0  0  0  0  0  0
   -6.8440    4.0880   18.2430 N   0  0  0  0  0  0  0  0  0  0  0  0
   -7.1370    4.1250   19.5730 C   0  0  0  0  0  0  0  0  0  0  0  0
   -6.4250    3.7080   20.4790 O   0  0  0  0  0  0  0  0  0  0  0  0
   -8.3530    4.7020   19.7470 O   0  0  0  0  0  0  0  0  0  0  0  0
   -8.3090    5.9850   20.3760 C   0  0  0  0  0  0  0  0  0  0  0  0
   -0.2163    1.3136   11.9594 H   0  0  0  0  0  0  0  0  0  0  0  0
    0.1046    0.0295   10.7450 H   0  0  0  0  0  0  0  0  0  0  0  0
   -1.4710    0.8921   10.7450 H   0  0  0  0  0  0  0  0  0  0  0  0
   -1.9956   -1.1328   11.7904 H   0  0  0  0  0  0  0  0  0  0  0  0
   -0.3923   -1.1674   12.6713 H   0  0  0  0  0  0  0  0  0  0  0  0
   -2.9448    0.2489   13.3692 H   0  0  0  0  0  0  0  0  0  0  0  0
   -1.7753   -0.6832   14.3991 H   0  0  0  0  0  0  0  0  0  0  0  0
   -3.6851    2.8477   14.2839 H   0  0  0  0  0  0  0  0  0  0  0  0
   -2.1304    1.7236   18.9515 H   0  0  0  0  0  0  0  0  0  0  0  0
   -0.7044    1.1817   16.9504 H   0  0  0  0  0  0  0  0  0  0  0  0
   -5.9423    3.8550   15.6790 H   0  0  0  0  0  0  0  0  0  0  0  0
   -7.5307    4.4749   17.5800 H   0  0  0  0  0  0  0  0  0  0  0  0
   -8.3134    5.8580   21.4686 H   0  0  0  0  0  0  0  0  0  0  0  0
   -7.3923    6.5113   20.0717 H   0  0  0  0  0  0  0  0  0  0  0  0
   -9.1875    6.5729   20.0717 H   0  0  0  0  0  0  0  0  0  0  0  0
  1  2  1  0
  2  3  1  0
  3  4  1  0
  4  5  1  0
  5  6  2  0
  6  7  1  0
  7  8  2  0
  8  9  1  0
  9 10  2  0
  8 11  1  0
 11 12  2  0
 12 13  1  0
 12 14  1  0
 14 15  1  0
 15 16  2  0
 15 17  1  0
 17 18  1  0
 10  5  1  0
 13  7  1  0
  1 19  1  0
  1 20  1  0
  1 21  1  0
  2 22  1  0
  2 23  1  0
  3 24  1  0
  3 25  1  0
  6 26  1  0
  9 27  1  0
 10 28  1  0
 13 29  1  0
 14 30  1  0
 18 31  1  0
 18 32  1  0
 18 33  1  0
M  END
