
     RDKit          3D

 45 48  0  0  0  0  0  0  0  0999 V2000
   -4.9580   -2.1350   13.0040 C   0  0  0  0  0  0  0  0  0  0  0  0
   -5.9040   -3.3340   13.0970 C   0  0  0  0  0  0  0  0  0  0  0  0
   -5.4760   -4.4680   12.1430 C   0  0  0  0  0  0  0  0  0  0  0  0
   -4.0090   -4.8740   12.3670 C   0  0  0  0  0  0  0  0  0  0  0  0
   -3.0720   -3.6670   12.2860 C   0  0  0  0  0  0  0  0  0  0  0  0
   -3.4990   -2.5530   13.2560 C   0  0  0  0  0  0  0  0  0  0  0  0
   -2.5530   -1.3650   13.1980 C   0  0  0  0  0  0  0  0  0  0  0  0
   -2.5720   -0.3570   14.1750 C   0  0  0  0  0  0  0  0  0  0  0  0
   -1.6930    0.7270   14.0980 C   0  0  0  0  0  0  0  0  0  0  0  0
   -0.7870    0.8120   13.0440 C   0  0  0  0  0  0  0  0  0  0  0  0
   -0.7540   -0.1780   12.0660 C   0  0  0  0  0  0  0  0  0  0  0  0
   -1.6330   -1.2610   12.1420 C   0  0  0  0  0  0  0  0  0  0  0  0
    0.2950    2.1450   12.9510 Cl  0  0  0  0  0  0  0  0  0  0  0  0
   -6.4210   -5.6650   12.1670 C   0  0  0  0  0  0  0  0  0  0  0  0
   -7.0430   -6.1480   13.2640 C   0  0  0  0  0  0  0  0  0  0  0  0
   -7.9170   -7.3430   13.2410 C   0  0  0  0  0  0  0  0  0  0  0  0
   -8.6270   -7.7510   14.3840 C   0  0  0  0  0  0  0  0  0  0  0  0
   -9.4300   -8.8970   14.3700 C   0  0  0  0  0  0  0  0  0  0  0  0
   -9.5350   -9.6620   13.2130 C   0  0  0  0  0  0  0  0  0  0  0  0
   -8.8400   -9.2780   12.0690 C   0  0  0  0  0  0  0  0  0  0  0  0
   -8.0450   -8.1240   12.0900 C   0  0  0  0  0  0  0  0  0  0  0  0
   -7.3230   -7.7240   10.8780 C   0  0  0  0  0  0  0  0  0  0  0  0
   -7.2410   -8.4620    9.9060 O   0  0  0  0  0  0  0  0  0  0  0  0
   -6.6810   -6.3510   10.8610 C   0  0  0  0  0  0  0  0  0  0  0  0
   -6.4020   -5.8350    9.7870 O   0  0  0  0  0  0  0  0  0  0  0  0
   -6.9360   -5.5760   14.5170 O   0  0  0  0  0  0  0  0  0  0  0  0
   -5.0360   -1.6942   11.9992 H   0  0  0  0  0  0  0  0  0  0  0  0
   -5.2475   -1.4040   13.7733 H   0  0  0  0  0  0  0  0  0  0  0  0
   -5.8985   -3.7142   14.1292 H   0  0  0  0  0  0  0  0  0  0  0  0
   -6.9117   -3.0015   12.8072 H   0  0  0  0  0  0  0  0  0  0  0  0
   -5.5497   -4.0586   11.1247 H   0  0  0  0  0  0  0  0  0  0  0  0
   -3.9137   -5.3338   13.3617 H   0  0  0  0  0  0  0  0  0  0  0  0
   -3.7241   -5.5844   11.5770 H   0  0  0  0  0  0  0  0  0  0  0  0
   -2.0515   -3.9896   12.5399 H   0  0  0  0  0  0  0  0  0  0  0  0
   -3.1142   -3.2667   11.2623 H   0  0  0  0  0  0  0  0  0  0  0  0
   -3.4399   -2.9565   14.2776 H   0  0  0  0  0  0  0  0  0  0  0  0
   -3.2858   -0.4209   15.0095 H   0  0  0  0  0  0  0  0  0  0  0  0
   -1.7169    1.5116   14.8686 H   0  0  0  0  0  0  0  0  0  0  0  0
   -0.0370   -0.1076   11.2348 H   0  0  0  0  0  0  0  0  0  0  0  0
   -1.6043   -2.0406   11.3665 H   0  0  0  0  0  0  0  0  0  0  0  0
   -8.5498   -7.1578   15.3071 H   0  0  0  0  0  0  0  0  0  0  0  0
   -9.9793   -9.1935   15.2758 H   0  0  0  0  0  0  0  0  0  0  0  0
  -10.1633  -10.5649   13.2018 H   0  0  0  0  0  0  0  0  0  0  0  0
   -8.9148   -9.8791   11.1508 H   0  0  0  0  0  0  0  0  0  0  0  0
   -7.4157   -5.9747   15.2858 H   0  0  0  0  0  0  0  0  0  0  0  0
  1  2  1  0
  2  3  1  0
  3  4  1  0
  4  5  1  0
  5  6  1  0
  6  7  1  0
  7  8  2  0
  8  9  1  0
  9 10  2  0
 10 11  1  0
 11 12  2  0
 10 13  1  0
  3 14  1  0
 14 15  2  0
 15 16  1  0
 16 17  2  0
 17 18  1  0
 18 19  2  0
 19 20  1  0
 20 21  2  0
 21 22  1  0
 22 23  2  0
 22 24  1  0
 24 25  2  0
 15 26  1  0
  6  1  1  0
 12  7  1  0
 24 14  1  0
 21 16  1  0
  1 27  1  0
  1 28  1  0
  2 29  1  0
  2 30  1  0
  3 31  1  0
  4 32  1  0
  4 33  1  0
  5 34  1  0
  5 35  1  0
  6 36  1  0
  8 37  1  0
  9 38  1  0
 11 39  1  0
 12 40  1  0
 17 41  1  0
 18 42  1  0
 19 43  1  0
 20 44  1  0
 26 45  1  0
M  END
