
     RDKit          3D

 31 32  0  0  0  0  0  0  0  0999 V2000
  -20.1620   70.1780   33.9770 C   0  0  0  0  0  0  0  0  0  0  0  0
  -19.4490   70.9620   35.0500 C   0  0  1  0  0  0  0  0  0  0  0  0
  -18.5810   71.9280   34.2440 C   0  0  2  0  0  0  0  0  0  0  0  0
  -19.2000   72.0810   32.9390 O   0  0  0  0  0  0  0  0  0  0  0  0
  -20.3710   71.2430   32.9070 C   0  0  1  0  0  0  0  0  0  0  0  0
  -20.5780   70.6770   31.5780 N   0  0  0  0  0  0  0  0  0  0  0  0
  -20.2790   69.3570   31.2930 C   0  0  0  0  0  0  0  0  0  0  0  0
  -20.4850   68.8160   30.0860 C   0  0  0  0  0  0  0  0  0  0  0  0
  -21.0590   69.6610   29.0320 C   0  0  0  0  0  0  0  0  0  0  0  0
  -21.2970   69.2440   27.9060 O   0  0  0  0  0  0  0  0  0  0  0  0
  -21.3270   70.9550   29.3860 N   0  0  0  0  0  0  0  0  0  0  0  0
  -21.1440   71.5130   30.6240 C   0  0  0  0  0  0  0  0  0  0  0  0
  -21.4860   72.6740   30.8400 O   0  0  0  0  0  0  0  0  0  0  0  0
  -20.1890   67.4180   29.7000 C   0  0  0  0  0  0  0  0  0  0  0  0
  -19.6480   66.7210   30.7390 F   0  0  0  0  0  0  0  0  0  0  0  0
  -21.2980   66.7300   29.3340 F   0  0  0  0  0  0  0  0  0  0  0  0
  -19.2930   67.3300   28.6870 F   0  0  0  0  0  0  0  0  0  0  0  0
  -17.1680   71.3900   34.0060 C   0  0  0  0  0  0  0  0  0  0  0  0
  -16.4590   72.2570   33.1220 O   0  0  0  0  0  0  0  0  0  0  0  0
  -20.4120   71.6970   35.8060 O   0  0  0  0  0  0  0  0  0  0  0  0
  -19.5401   69.3509   33.6040 H   0  0  0  0  0  0  0  0  0  0  0  0
  -21.0909   69.6968   34.3169 H   0  0  0  0  0  0  0  0  0  0  0  0
  -18.8749   70.3407   35.7531 H   0  0  0  0  0  0  0  0  0  0  0  0
  -18.5050   72.8691   34.8084 H   0  0  0  0  0  0  0  0  0  0  0  0
  -21.2866   71.8149   33.1182 H   0  0  0  0  0  0  0  0  0  0  0  0
  -19.8554   68.7272   32.0892 H   0  0  0  0  0  0  0  0  0  0  0  0
  -21.7030   71.5698   28.6501 H   0  0  0  0  0  0  0  0  0  0  0  0
  -16.6337   71.3319   34.9658 H   0  0  0  0  0  0  0  0  0  0  0  0
  -17.2337   70.3889   33.5549 H   0  0  0  0  0  0  0  0  0  0  0  0
  -15.9289   72.9052   33.6502 H   0  0  0  0  0  0  0  0  0  0  0  0
  -20.2417   71.5670   36.7726 H   0  0  0  0  0  0  0  0  0  0  0  0
  1  2  1  0
  2  3  1  0
  3  4  1  0
  4  5  1  0
  5  6  1  0
  6  7  1  0
  7  8  2  0
  8  9  1  0
  9 10  2  0
  9 11  1  0
 11 12  1  0
 12 13  2  0
  8 14  1  0
 14 15  1  0
 14 16  1  0
 14 17  1  0
  3 18  1  0
 18 19  1  0
  2 20  1  0
  5  1  1  0
 12  6  1  0
  1 21  1  0
  1 22  1  0
  2 23  1  1
  3 24  1  1
  5 25  1  1
  7 26  1  0
 11 27  1  0
 18 28  1  0
 18 29  1  0
 19 30  1  0
 20 31  1  0
M  END
