
     RDKit          3D

 52 54  0  0  0  0  0  0  0  0999 V2000
  -19.6190   72.2490   20.0660 C   0  0  0  0  0  0  0  0  0  0  0  0
  -20.5700   73.2660   19.3910 C   0  0  0  0  0  0  0  0  0  0  0  0
  -21.2280   72.7690   18.1740 N   0  0  0  0  0  0  0  0  0  0  0  0
  -21.2890   71.2950   18.1410 C   0  0  0  0  0  0  0  0  0  0  0  0
  -21.4270   70.6860   19.5540 C   0  0  0  0  0  0  0  0  0  0  0  0
  -20.2500   70.9570   20.4060 N   0  0  0  0  0  0  0  0  0  0  0  0
  -20.5620   70.8500   21.8390 C   0  0  0  0  0  0  0  0  0  0  0  0
  -21.9080   70.1690   22.1800 C   0  0  0  0  0  0  0  0  0  0  0  0
  -21.8960   69.3610   23.3570 O   0  0  0  0  0  0  0  0  0  0  0  0
  -22.3700   70.0250   24.5200 C   0  0  0  0  0  0  0  0  0  0  0  0
  -21.2530   70.7410   25.2660 C   0  0  0  0  0  0  0  0  0  0  0  0
  -20.1080   70.3680   25.4570 O   0  0  0  0  0  0  0  0  0  0  0  0
  -21.6610   71.9320   25.7620 O   0  0  0  0  0  0  0  0  0  0  0  0
  -20.7990   73.3670   16.8870 C   0  0  0  0  0  0  0  0  0  0  0  0
  -21.9520   73.9040   16.0230 C   0  0  0  0  0  0  0  0  0  0  0  0
  -23.2560   73.4120   16.2120 C   0  0  0  0  0  0  0  0  0  0  0  0
  -24.3210   73.8790   15.4380 C   0  0  0  0  0  0  0  0  0  0  0  0
  -24.1030   74.8520   14.4670 C   0  0  0  0  0  0  0  0  0  0  0  0
  -22.8230   75.3610   14.2690 C   0  0  0  0  0  0  0  0  0  0  0  0
  -21.7570   74.8930   15.0400 C   0  0  0  0  0  0  0  0  0  0  0  0
  -19.7760   72.5040   16.1120 C   0  0  0  0  0  0  0  0  0  0  0  0
  -18.4330   72.3890   16.5110 C   0  0  0  0  0  0  0  0  0  0  0  0
  -17.5200   71.6310   15.7700 C   0  0  0  0  0  0  0  0  0  0  0  0
  -17.9320   70.9930   14.6060 C   0  0  0  0  0  0  0  0  0  0  0  0
  -19.2470   71.1140   14.1680 C   0  0  0  0  0  0  0  0  0  0  0  0
  -20.1580   71.8720   14.9110 C   0  0  0  0  0  0  0  0  0  0  0  0
  -16.8090   70.0610   13.6940 Cl  0  0  0  0  0  0  0  0  0  0  0  0
  -18.7816   72.0531   19.3801 H   0  0  0  0  0  0  0  0  0  0  0  0
  -19.2980   72.7015   21.0158 H   0  0  0  0  0  0  0  0  0  0  0  0
  -21.3503   73.5405   20.1160 H   0  0  0  0  0  0  0  0  0  0  0  0
  -19.9486   74.1204   19.0845 H   0  0  0  0  0  0  0  0  0  0  0  0
  -22.1562   70.9896   17.5371 H   0  0  0  0  0  0  0  0  0  0  0  0
  -20.3486   70.9273   17.7047 H   0  0  0  0  0  0  0  0  0  0  0  0
  -22.3178   71.1141   20.0369 H   0  0  0  0  0  0  0  0  0  0  0  0
  -21.5125   69.5952   19.4403 H   0  0  0  0  0  0  0  0  0  0  0  0
  -19.7587   70.2711   22.3181 H   0  0  0  0  0  0  0  0  0  0  0  0
  -20.6454   71.8832   22.2071 H   0  0  0  0  0  0  0  0  0  0  0  0
  -22.6640   70.9566   22.3148 H   0  0  0  0  0  0  0  0  0  0  0  0
  -22.1284   69.4893   21.3436 H   0  0  0  0  0  0  0  0  0  0  0  0
  -23.1282   70.7642   24.2222 H   0  0  0  0  0  0  0  0  0  0  0  0
  -22.7951   69.2663   25.1936 H   0  0  0  0  0  0  0  0  0  0  0  0
  -21.0286   72.4994   26.2701 H   0  0  0  0  0  0  0  0  0  0  0  0
  -20.2414   74.2705   17.1747 H   0  0  0  0  0  0  0  0  0  0  0  0
  -23.4401   72.6476   16.9813 H   0  0  0  0  0  0  0  0  0  0  0  0
  -25.3328   73.4774   15.5961 H   0  0  0  0  0  0  0  0  0  0  0  0
  -24.9416   75.2183   13.8567 H   0  0  0  0  0  0  0  0  0  0  0  0
  -22.6508   76.1328   13.5043 H   0  0  0  0  0  0  0  0  0  0  0  0
  -20.7495   75.3033   14.8769 H   0  0  0  0  0  0  0  0  0  0  0  0
  -18.0940   72.9041   17.4219 H   0  0  0  0  0  0  0  0  0  0  0  0
  -16.4773   71.5401   16.1082 H   0  0  0  0  0  0  0  0  0  0  0  0
  -19.5688   70.6158   13.2416 H   0  0  0  0  0  0  0  0  0  0  0  0
  -21.1922   71.9770   14.5514 H   0  0  0  0  0  0  0  0  0  0  0  0
  1  2  1  0
  2  3  1  0
  3  4  1  0
  4  5  1  0
  5  6  1  0
  6  7  1  0
  7  8  1  0
  8  9  1  0
  9 10  1  0
 10 11  1  0
 11 12  2  0
 11 13  1  0
  3 14  1  0
 14 15  1  0
 15 16  2  0
 16 17  1  0
 17 18  2  0
 18 19  1  0
 19 20  2  0
 14 21  1  0
 21 22  2  0
 22 23  1  0
 23 24  2  0
 24 25  1  0
 25 26  2  0
 24 27  1  0
  6  1  1  0
 20 15  1  0
 26 21  1  0
  1 28  1  0
  1 29  1  0
  2 30  1  0
  2 31  1  0
  4 32  1  0
  4 33  1  0
  5 34  1  0
  5 35  1  0
  7 36  1  0
  7 37  1  0
  8 38  1  0
  8 39  1  0
 10 40  1  0
 10 41  1  0
 13 42  1  0
 14 43  1  0
 16 44  1  0
 17 45  1  0
 18 46  1  0
 19 47  1  0
 20 48  1  0
 22 49  1  0
 23 50  1  0
 25 51  1  0
 26 52  1  0
M  END
