
     RDKit          3D

 60 63  0  0  0  0  0  0  0  0999 V2000
  -21.4630   69.4390   36.8970 C   0  0  0  0  0  0  0  0  0  0  0  0
  -21.9230   69.5400   35.4980 N   0  0  0  0  0  0  0  0  0  0  0  0
  -23.3410   69.9500   35.5380 C   0  0  0  0  0  0  0  0  0  0  0  0
  -21.1010   70.5080   34.7050 C   0  0  2  0  0  0  0  0  0  0  0  0
  -21.3030   70.3370   33.1760 C   0  0  1  0  0  0  0  0  0  0  0  0
  -20.6550   71.4900   32.3770 C   0  0  0  0  0  0  0  0  0  0  0  0
  -20.8690   71.3550   30.8610 C   0  0  2  0  0  0  0  0  0  0  0  0
  -22.1630   72.0270   30.3880 C   0  0  0  0  0  0  0  0  0  0  0  0
  -22.3050   71.9630   28.8800 C   0  0  0  0  0  0  0  0  0  0  0  0
  -23.0110   72.9470   28.1540 C   0  0  0  0  0  0  0  0  0  0  0  0
  -23.0430   72.8520   26.7490 C   0  0  0  0  0  0  0  0  0  0  0  0
  -22.4410   71.7990   26.0660 C   0  0  0  0  0  0  0  0  0  0  0  0
  -21.7950   70.8040   26.7810 C   0  0  0  0  0  0  0  0  0  0  0  0
  -21.7190   70.8740   28.1790 C   0  0  0  0  0  0  0  0  0  0  0  0
  -21.0420   69.7730   28.9180 C   0  0  0  0  0  0  0  0  0  0  0  0
  -20.8730   69.9330   30.3890 C   0  0  0  0  0  0  0  0  0  0  0  0
  -20.7900   68.8550   31.1930 C   0  0  0  0  0  0  0  0  0  0  0  0
  -20.7910   67.5590   30.6890 O   0  0  0  0  0  0  0  0  0  0  0  0
  -20.7760   68.9570   32.7190 C   0  0  1  0  0  0  0  0  0  0  0  0
  -19.3330   68.6800   33.2340 C   0  0  0  0  0  0  0  0  0  0  0  0
  -18.7860   69.5220   34.3480 C   0  0  0  0  0  0  0  0  0  0  0  0
  -19.6130   70.3640   35.0080 C   0  0  0  0  0  0  0  0  0  0  0  0
  -19.1880   71.2260   36.0160 O   0  0  0  0  0  0  0  0  0  0  0  0
  -17.3470   69.4700   34.7530 C   0  0  0  0  0  0  0  0  0  0  0  0
  -16.6470   70.4800   34.7820 O   0  0  0  0  0  0  0  0  0  0  0  0
  -16.8330   68.2610   35.0820 N   0  0  0  0  0  0  0  0  0  0  0  0
  -18.6170   67.7860   32.7700 O   0  0  0  0  0  0  0  0  0  0  0  0
  -21.6660   67.9530   33.2230 O   0  0  0  0  0  0  0  0  0  0  0  0
  -20.6590   68.7590   28.3370 O   0  0  0  0  0  0  0  0  0  0  0  0
  -21.2540   69.7870   26.0410 O   0  0  0  0  0  0  0  0  0  0  0  0
  -23.6940   74.0340   28.7070 N   0  0  0  0  0  0  0  0  0  0  0  0
  -25.0560   73.7350   29.1420 C   0  0  0  0  0  0  0  0  0  0  0  0
  -23.4570   75.3580   28.1500 C   0  0  0  0  0  0  0  0  0  0  0  0
  -22.3088   69.6247   37.5754 H   0  0  0  0  0  0  0  0  0  0  0  0
  -21.0613   68.4313   37.0791 H   0  0  0  0  0  0  0  0  0  0  0  0
  -20.6761   70.1858   37.0791 H   0  0  0  0  0  0  0  0  0  0  0  0
  -23.6661   70.0440   36.5846 H   0  0  0  0  0  0  0  0  0  0  0  0
  -23.4571   70.9185   35.0296 H   0  0  0  0  0  0  0  0  0  0  0  0
  -23.9561   69.1929   35.0296 H   0  0  0  0  0  0  0  0  0  0  0  0
  -21.4488   71.5070   35.0067 H   0  0  0  0  0  0  0  0  0  0  0  0
  -22.3820   70.3807   32.9667 H   0  0  0  0  0  0  0  0  0  0  0  0
  -21.0957   72.4408   32.7113 H   0  0  0  0  0  0  0  0  0  0  0  0
  -19.5715   71.4557   32.5638 H   0  0  0  0  0  0  0  0  0  0  0  0
  -20.0047   71.8715   30.4179 H   0  0  0  0  0  0  0  0  0  0  0  0
  -23.0205   71.5154   30.8495 H   0  0  0  0  0  0  0  0  0  0  0  0
  -22.1305   73.0853   30.6863 H   0  0  0  0  0  0  0  0  0  0  0  0
  -23.5598   73.6342   26.1736 H   0  0  0  0  0  0  0  0  0  0  0  0
  -22.4780   71.7574   24.9674 H   0  0  0  0  0  0  0  0  0  0  0  0
  -15.8463   68.1810   35.3666 H   0  0  0  0  0  0  0  0  0  0  0  0
  -17.4288   67.4215   35.0477 H   0  0  0  0  0  0  0  0  0  0  0  0
  -17.7050   67.6460   33.1288 H   0  0  0  0  0  0  0  0  0  0  0  0
  -21.6532   67.9674   34.2128 H   0  0  0  0  0  0  0  0  0  0  0  0
  -20.2106   68.0370   28.8448 H   0  0  0  0  0  0  0  0  0  0  0  0
  -20.7789   69.0449   26.4923 H   0  0  0  0  0  0  0  0  0  0  0  0
  -25.0962   73.7262   30.2412 H   0  0  0  0  0  0  0  0  0  0  0  0
  -25.7413   74.5041   28.7562 H   0  0  0  0  0  0  0  0  0  0  0  0
  -25.3561   72.7496   28.7562 H   0  0  0  0  0  0  0  0  0  0  0  0
  -23.3274   76.0821   28.9679 H   0  0  0  0  0  0  0  0  0  0  0  0
  -22.5482   75.3379   27.5306 H   0  0  0  0  0  0  0  0  0  0  0  0
  -24.3164   75.6544   27.5306 H   0  0  0  0  0  0  0  0  0  0  0  0
  1  2  1  0
  2  3  1  0
  2  4  1  0
  4  5  1  0
  5  6  1  0
  6  7  1  0
  7  8  1  0
  8  9  1  0
  9 10  2  0
 10 11  1  0
 11 12  2  0
 12 13  1  0
 13 14  2  0
 14 15  1  0
 15 16  2  0
 16 17  1  0
 17 18  2  0
 17 19  1  0
 19 20  1  0
 20 21  2  0
 21 22  1  0
 22 23  2  0
 21 24  1  0
 24 25  2  0
 24 26  1  0
 20 27  1  0
 19 28  1  6
 15 29  1  0
 13 30  1  0
 10 31  1  0
 31 32  1  0
 31 33  1  0
 22  4  1  0
 19  5  1  0
 16  7  1  0
 14  9  1  0
  1 34  1  0
  1 35  1  0
  1 36  1  0
  3 37  1  0
  3 38  1  0
  3 39  1  0
  4 40  1  6
  5 41  1  6
  6 42  1  0
  6 43  1  0
  7 44  1  6
  8 45  1  0
  8 46  1  0
 11 47  1  0
 12 48  1  0
 26 49  1  0
 26 50  1  0
 27 51  1  0
 28 52  1  0
 29 53  1  0
 30 54  1  0
 32 55  1  0
 32 56  1  0
 32 57  1  0
 33 58  1  0
 33 59  1  0
 33 60  1  0
M  END
