
     RDKit          3D

 60 63  0  0  0  0  0  0  0  0999 V2000
 -127.7290   60.8710   39.3430 C   0  0  0  0  0  0  0  0  0  0  0  0
 -127.9960   62.3200   39.2580 N   0  0  0  0  0  0  0  0  0  0  0  0
 -127.9500   62.8500   40.6350 C   0  0  0  0  0  0  0  0  0  0  0  0
 -127.0110   63.0210   38.3740 C   0  0  2  0  0  0  0  0  0  0  0  0
 -127.3200   64.5350   38.2340 C   0  0  1  0  0  0  0  0  0  0  0  0
 -126.1700   65.2950   37.5340 C   0  0  0  0  0  0  0  0  0  0  0  0
 -126.4440   66.8020   37.4120 C   0  0  2  0  0  0  0  0  0  0  0  0
 -125.9510   67.5910   38.6300 C   0  0  0  0  0  0  0  0  0  0  0  0
 -126.1470   69.0820   38.4440 C   0  0  0  0  0  0  0  0  0  0  0  0
 -125.3010   70.0300   39.0640 C   0  0  0  0  0  0  0  0  0  0  0  0
 -125.5080   71.3950   38.7910 C   0  0  0  0  0  0  0  0  0  0  0  0
 -126.5420   71.8370   37.9690 C   0  0  0  0  0  0  0  0  0  0  0  0
 -127.4040   70.9120   37.4040 C   0  0  0  0  0  0  0  0  0  0  0  0
 -127.2190   69.5410   37.6310 C   0  0  0  0  0  0  0  0  0  0  0  0
 -128.1820   68.5760   37.0330 C   0  0  0  0  0  0  0  0  0  0  0  0
 -127.8910   67.1240   37.1920 C   0  0  0  0  0  0  0  0  0  0  0  0
 -128.8900   66.2190   37.1880 C   0  0  0  0  0  0  0  0  0  0  0  0
 -130.2130   66.5830   36.9700 O   0  0  0  0  0  0  0  0  0  0  0  0
 -128.6680   64.7390   37.5040 C   0  0  1  0  0  0  0  0  0  0  0  0
 -128.7510   63.9180   36.1840 C   0  0  0  0  0  0  0  0  0  0  0  0
 -127.7730   62.8040   35.9600 C   0  0  0  0  0  0  0  0  0  0  0  0
 -126.9740   62.4100   36.9770 C   0  0  0  0  0  0  0  0  0  0  0  0
 -125.9970   61.4270   36.8510 O   0  0  0  0  0  0  0  0  0  0  0  0
 -127.6410   62.1140   34.6400 C   0  0  0  0  0  0  0  0  0  0  0  0
 -127.8980   60.9190   34.5060 O   0  0  0  0  0  0  0  0  0  0  0  0
 -127.2200   62.8530   33.5850 N   0  0  0  0  0  0  0  0  0  0  0  0
 -129.5980   64.1390   35.3110 O   0  0  0  0  0  0  0  0  0  0  0  0
 -129.7180   64.3300   38.3900 O   0  0  0  0  0  0  0  0  0  0  0  0
 -129.1920   68.9660   36.4490 O   0  0  0  0  0  0  0  0  0  0  0  0
 -128.4140   71.4240   36.6340 O   0  0  0  0  0  0  0  0  0  0  0  0
 -124.2530   69.7350   39.9400 N   0  0  0  0  0  0  0  0  0  0  0  0
 -124.5570   69.9720   41.3490 C   0  0  0  0  0  0  0  0  0  0  0  0
 -122.8900   70.0060   39.5060 C   0  0  0  0  0  0  0  0  0  0  0  0
 -127.6735   60.5697   40.3995 H   0  0  0  0  0  0  0  0  0  0  0  0
 -128.5405   60.3189   38.8464 H   0  0  0  0  0  0  0  0  0  0  0  0
 -126.7740   60.6444   38.8464 H   0  0  0  0  0  0  0  0  0  0  0  0
 -128.0222   62.0179   41.3508 H   0  0  0  0  0  0  0  0  0  0  0  0
 -127.0020   63.3859   40.7902 H   0  0  0  0  0  0  0  0  0  0  0  0
 -128.7915   63.5412   40.7902 H   0  0  0  0  0  0  0  0  0  0  0  0
 -126.0334   62.8952   38.8624 H   0  0  0  0  0  0  0  0  0  0  0  0
 -127.4064   64.9615   39.2443 H   0  0  0  0  0  0  0  0  0  0  0  0
 -125.2475   65.1509   38.1155 H   0  0  0  0  0  0  0  0  0  0  0  0
 -126.0757   64.8906   36.5154 H   0  0  0  0  0  0  0  0  0  0  0  0
 -125.8745   67.1092   36.5224 H   0  0  0  0  0  0  0  0  0  0  0  0
 -126.5125   67.2650   39.5179 H   0  0  0  0  0  0  0  0  0  0  0  0
 -124.8752   67.3977   38.7533 H   0  0  0  0  0  0  0  0  0  0  0  0
 -124.8316   72.1365   39.2411 H   0  0  0  0  0  0  0  0  0  0  0  0
 -126.6727   72.9110   37.7704 H   0  0  0  0  0  0  0  0  0  0  0  0
 -127.1159   62.4153   32.6584 H   0  0  0  0  0  0  0  0  0  0  0  0
 -127.0041   63.8524   33.7097 H   0  0  0  0  0  0  0  0  0  0  0  0
 -129.6136   63.5912   34.4865 H   0  0  0  0  0  0  0  0  0  0  0  0
 -129.4222   64.4452   39.3277 H   0  0  0  0  0  0  0  0  0  0  0  0
 -129.8216   68.3101   36.0572 H   0  0  0  0  0  0  0  0  0  0  0  0
 -129.0642   70.8153   36.2018 H   0  0  0  0  0  0  0  0  0  0  0  0
 -123.8444   69.4164   41.9763 H   0  0  0  0  0  0  0  0  0  0  0  0
 -124.4756   71.0473   41.5658 H   0  0  0  0  0  0  0  0  0  0  0  0
 -125.5800   69.6307   41.5658 H   0  0  0  0  0  0  0  0  0  0  0  0
 -122.2435   70.1345   40.3866 H   0  0  0  0  0  0  0  0  0  0  0  0
 -122.5232   69.1632   38.9017 H   0  0  0  0  0  0  0  0  0  0  0  0
 -122.8735   70.9250   38.9017 H   0  0  0  0  0  0  0  0  0  0  0  0
  1  2  1  0
  2  3  1  0
  2  4  1  0
  4  5  1  0
  5  6  1  0
  6  7  1  0
  7  8  1  0
  8  9  1  0
  9 10  2  0
 10 11  1  0
 11 12  2  0
 12 13  1  0
 13 14  2  0
 14 15  1  0
 15 16  2  0
 16 17  1  0
 17 18  2  0
 17 19  1  0
 19 20  1  0
 20 21  2  0
 21 22  1  0
 22 23  2  0
 21 24  1  0
 24 25  2  0
 24 26  1  0
 20 27  1  0
 19 28  1  6
 15 29  1  0
 13 30  1  0
 10 31  1  0
 31 32  1  0
 31 33  1  0
 22  4  1  0
 19  5  1  0
 16  7  1  0
 14  9  1  0
  1 34  1  0
  1 35  1  0
  1 36  1  0
  3 37  1  0
  3 38  1  0
  3 39  1  0
  4 40  1  6
  5 41  1  6
  6 42  1  0
  6 43  1  0
  7 44  1  6
  8 45  1  0
  8 46  1  0
 11 47  1  0
 12 48  1  0
 26 49  1  0
 26 50  1  0
 27 51  1  0
 28 52  1  0
 29 53  1  0
 30 54  1  0
 32 55  1  0
 32 56  1  0
 32 57  1  0
 33 58  1  0
 33 59  1  0
 33 60  1  0
M  END
