
     RDKit          3D

 52 54  0  0  0  0  0  0  0  0999 V2000
   -3.8700   -0.7040   12.6610 C   0  0  0  0  0  0  0  0  0  0  0  0
   -4.5730   -1.9260   13.2990 C   0  0  0  0  0  0  0  0  0  0  0  0
   -4.7640   -3.0630   12.3860 N   0  0  0  0  0  0  0  0  0  0  0  0
   -3.8070   -3.0380   11.2640 C   0  0  0  0  0  0  0  0  0  0  0  0
   -2.4480   -2.4280   11.6720 C   0  0  0  0  0  0  0  0  0  0  0  0
   -2.5570   -1.0050   12.0530 N   0  0  0  0  0  0  0  0  0  0  0  0
   -1.4380   -0.5670   12.9020 C   0  0  0  0  0  0  0  0  0  0  0  0
   -1.7240    0.6570   13.8030 C   0  0  0  0  0  0  0  0  0  0  0  0
   -1.8040    0.3750   15.2000 O   0  0  0  0  0  0  0  0  0  0  0  0
   -1.4650    1.4750   16.0330 C   0  0  0  0  0  0  0  0  0  0  0  0
   -2.6960    2.2140   16.5370 C   0  0  0  0  0  0  0  0  0  0  0  0
   -3.0370    3.3630   16.3110 O   0  0  0  0  0  0  0  0  0  0  0  0
   -3.4550    1.4360   17.3420 O   0  0  0  0  0  0  0  0  0  0  0  0
   -6.1550   -3.3580   11.9650 C   0  0  0  0  0  0  0  0  0  0  0  0
   -7.0750   -2.1270   11.9140 C   0  0  0  0  0  0  0  0  0  0  0  0
   -7.7000   -1.6080   13.0640 C   0  0  0  0  0  0  0  0  0  0  0  0
   -8.5290   -0.4870   12.9870 C   0  0  0  0  0  0  0  0  0  0  0  0
   -8.7520    0.1340   11.7620 C   0  0  0  0  0  0  0  0  0  0  0  0
   -8.1500   -0.3660   10.6110 C   0  0  0  0  0  0  0  0  0  0  0  0
   -7.3220   -1.4880   10.6860 C   0  0  0  0  0  0  0  0  0  0  0  0
   -6.7730   -4.5810   12.6800 C   0  0  0  0  0  0  0  0  0  0  0  0
   -7.5980   -4.3930   13.8080 C   0  0  0  0  0  0  0  0  0  0  0  0
   -8.2010   -5.4760   14.4550 C   0  0  0  0  0  0  0  0  0  0  0  0
   -8.0050   -6.7650   13.9710 C   0  0  0  0  0  0  0  0  0  0  0  0
   -7.2220   -6.9780   12.8420 C   0  0  0  0  0  0  0  0  0  0  0  0
   -6.6200   -5.8930   12.1960 C   0  0  0  0  0  0  0  0  0  0  0  0
   -8.7460   -8.1000   14.7650 Cl  0  0  0  0  0  0  0  0  0  0  0  0
   -4.5274   -0.2989   11.8776 H   0  0  0  0  0  0  0  0  0  0  0  0
   -3.6828    0.0116   13.4752 H   0  0  0  0  0  0  0  0  0  0  0  0
   -3.9652   -2.2668   14.1501 H   0  0  0  0  0  0  0  0  0  0  0  0
   -5.5775   -1.5902   13.5960 H   0  0  0  0  0  0  0  0  0  0  0  0
   -3.6428   -4.0682   10.9150 H   0  0  0  0  0  0  0  0  0  0  0  0
   -4.2346   -2.4101   10.4684 H   0  0  0  0  0  0  0  0  0  0  0  0
   -2.0509   -2.9928   12.5283 H   0  0  0  0  0  0  0  0  0  0  0  0
   -1.7793   -2.4900   10.8008 H   0  0  0  0  0  0  0  0  0  0  0  0
   -1.1570   -1.4083   13.5526 H   0  0  0  0  0  0  0  0  0  0  0  0
   -0.6406   -0.2538   12.2120 H   0  0  0  0  0  0  0  0  0  0  0  0
   -0.9179    1.3894   13.6488 H   0  0  0  0  0  0  0  0  0  0  0  0
   -2.7163    1.0292   13.5083 H   0  0  0  0  0  0  0  0  0  0  0  0
   -0.8964    1.1026   16.8979 H   0  0  0  0  0  0  0  0  0  0  0  0
   -0.8683    2.1801   15.4357 H   0  0  0  0  0  0  0  0  0  0  0  0
   -4.2872    1.7973   17.7382 H   0  0  0  0  0  0  0  0  0  0  0  0
   -6.0662   -3.6652   10.9125 H   0  0  0  0  0  0  0  0  0  0  0  0
   -7.5328   -2.0927   14.0372 H   0  0  0  0  0  0  0  0  0  0  0  0
   -9.0067   -0.0941   13.8966 H   0  0  0  0  0  0  0  0  0  0  0  0
   -9.4030    1.0187   11.7033 H   0  0  0  0  0  0  0  0  0  0  0  0
   -8.3266    0.1230    9.6416 H   0  0  0  0  0  0  0  0  0  0  0  0
   -6.8554   -1.8783    9.7695 H   0  0  0  0  0  0  0  0  0  0  0  0
   -7.7705   -3.3746   14.1863 H   0  0  0  0  0  0  0  0  0  0  0  0
   -8.8279   -5.3091   15.3433 H   0  0  0  0  0  0  0  0  0  0  0  0
   -7.0761   -7.9982   12.4573 H   0  0  0  0  0  0  0  0  0  0  0  0
   -6.0162   -6.0689   11.2935 H   0  0  0  0  0  0  0  0  0  0  0  0
  1  2  1  0
  2  3  1  0
  3  4  1  0
  4  5  1  0
  5  6  1  0
  6  7  1  0
  7  8  1  0
  8  9  1  0
  9 10  1  0
 10 11  1  0
 11 12  2  0
 11 13  1  0
  3 14  1  0
 14 15  1  0
 15 16  2  0
 16 17  1  0
 17 18  2  0
 18 19  1  0
 19 20  2  0
 14 21  1  0
 21 22  2  0
 22 23  1  0
 23 24  2  0
 24 25  1  0
 25 26  2  0
 24 27  1  0
  6  1  1  0
 20 15  1  0
 26 21  1  0
  1 28  1  0
  1 29  1  0
  2 30  1  0
  2 31  1  0
  4 32  1  0
  4 33  1  0
  5 34  1  0
  5 35  1  0
  7 36  1  0
  7 37  1  0
  8 38  1  0
  8 39  1  0
 10 40  1  0
 10 41  1  0
 13 42  1  0
 14 43  1  0
 16 44  1  0
 17 45  1  0
 18 46  1  0
 19 47  1  0
 20 48  1  0
 22 49  1  0
 23 50  1  0
 25 51  1  0
 26 52  1  0
M  END
