
     RDKit          3D

 49 52  0  0  0  0  0  0  0  0999 V2000
 -114.5090   68.3040   36.2160 C   0  0  0  0  0  0  0  0  0  0  0  0
 -114.1130   69.5560   36.8460 N   0  0  0  0  0  0  0  0  0  0  0  0
 -112.7100   69.5480   37.2670 C   0  0  0  0  0  0  0  0  0  0  0  0
 -112.2590   70.9110   37.8580 C   0  0  0  0  0  0  0  0  0  0  0  0
 -113.3290   71.7270   38.4740 N   0  0  0  0  0  0  0  0  0  0  0  0
 -114.3710   70.8570   39.0340 C   0  0  0  0  0  0  0  0  0  0  0  0
 -114.9920   69.8970   37.9800 C   0  0  0  0  0  0  0  0  0  0  0  0
 -112.7720   72.6920   39.4280 C   0  0  0  0  0  0  0  0  0  0  0  0
 -113.3870   72.5780   40.8280 C   0  0  0  0  0  0  0  0  0  0  0  0
 -112.3050   72.2320   41.8600 C   0  0  0  0  0  0  0  0  0  0  0  0
 -112.7170   71.1150   42.7420 N   0  0  0  0  0  0  0  0  0  0  0  0
 -113.4230   71.4560   43.9330 C   0  0  0  0  0  0  0  0  0  0  0  0
 -113.4230   72.7670   44.4630 C   0  0  0  0  0  0  0  0  0  0  0  0
 -114.1030   73.1090   45.6390 C   0  0  0  0  0  0  0  0  0  0  0  0
 -114.8090   72.1440   46.3340 C   0  0  0  0  0  0  0  0  0  0  0  0
 -114.8280   70.8420   45.8510 C   0  0  0  0  0  0  0  0  0  0  0  0
 -114.1430   70.4920   44.6690 C   0  0  0  0  0  0  0  0  0  0  0  0
 -114.2950   68.7920   44.1780 S   0  0  0  0  0  0  0  0  0  0  0  0
 -113.1120   68.6730   42.8570 C   0  0  0  0  0  0  0  0  0  0  0  0
 -112.4790   69.7900   42.2730 C   0  0  0  0  0  0  0  0  0  0  0  0
 -111.5790   69.5150   41.2180 C   0  0  0  0  0  0  0  0  0  0  0  0
 -111.3360   68.2150   40.7640 C   0  0  0  0  0  0  0  0  0  0  0  0
 -111.9760   67.1350   41.3470 C   0  0  0  0  0  0  0  0  0  0  0  0
 -112.8610   67.3660   42.3920 C   0  0  0  0  0  0  0  0  0  0  0  0
 -110.2290   67.9520   39.4710 Cl  0  0  0  0  0  0  0  0  0  0  0  0
 -114.7440   67.5611   36.9924 H   0  0  0  0  0  0  0  0  0  0  0  0
 -115.3974   68.4735   35.5899 H   0  0  0  0  0  0  0  0  0  0  0  0
 -113.6847   67.9318   35.5899 H   0  0  0  0  0  0  0  0  0  0  0  0
 -112.5759   68.7697   38.0327 H   0  0  0  0  0  0  0  0  0  0  0  0
 -112.0950   69.3497   36.3768 H   0  0  0  0  0  0  0  0  0  0  0  0
 -111.4999   70.7111   38.6286 H   0  0  0  0  0  0  0  0  0  0  0  0
 -111.8850   71.4988   37.0068 H   0  0  0  0  0  0  0  0  0  0  0  0
 -113.9280   70.2535   39.8399 H   0  0  0  0  0  0  0  0  0  0  0  0
 -115.1783   71.5064   39.4037 H   0  0  0  0  0  0  0  0  0  0  0  0
 -115.2663   68.9623   38.4910 H   0  0  0  0  0  0  0  0  0  0  0  0
 -115.8518   70.4313   37.5497 H   0  0  0  0  0  0  0  0  0  0  0  0
 -111.6883   72.5206   39.5068 H   0  0  0  0  0  0  0  0  0  0  0  0
 -113.0036   73.6984   39.0492 H   0  0  0  0  0  0  0  0  0  0  0  0
 -113.8528   73.5370   41.0986 H   0  0  0  0  0  0  0  0  0  0  0  0
 -114.1434   71.7793   40.8220 H   0  0  0  0  0  0  0  0  0  0  0  0
 -111.3860   71.9444   41.3283 H   0  0  0  0  0  0  0  0  0  0  0  0
 -112.1393   73.1189   42.4893 H   0  0  0  0  0  0  0  0  0  0  0  0
 -112.8657   73.5511   43.9295 H   0  0  0  0  0  0  0  0  0  0  0  0
 -114.0755   74.1444   46.0094 H   0  0  0  0  0  0  0  0  0  0  0  0
 -115.3482   72.4042   47.2568 H   0  0  0  0  0  0  0  0  0  0  0  0
 -115.3872   70.0701   46.4001 H   0  0  0  0  0  0  0  0  0  0  0  0
 -111.0518   70.3525   40.7378 H   0  0  0  0  0  0  0  0  0  0  0  0
 -111.7870   66.1122   40.9890 H   0  0  0  0  0  0  0  0  0  0  0  0
 -113.3744   66.5156   42.8645 H   0  0  0  0  0  0  0  0  0  0  0  0
  1  2  1  0
  2  3  1  0
  3  4  1  0
  4  5  1  0
  5  6  1  0
  6  7  1  0
  5  8  1  0
  8  9  1  0
  9 10  1  0
 10 11  1  0
 11 12  1  0
 12 13  2  0
 13 14  1  0
 14 15  2  0
 15 16  1  0
 16 17  2  0
 17 18  1  0
 18 19  1  0
 19 20  2  0
 20 21  1  0
 21 22  2  0
 22 23  1  0
 23 24  2  0
 22 25  1  0
  7  2  1  0
 20 11  1  0
 17 12  1  0
 24 19  1  0
  1 26  1  0
  1 27  1  0
  1 28  1  0
  3 29  1  0
  3 30  1  0
  4 31  1  0
  4 32  1  0
  6 33  1  0
  6 34  1  0
  7 35  1  0
  7 36  1  0
  8 37  1  0
  8 38  1  0
  9 39  1  0
  9 40  1  0
 10 41  1  0
 10 42  1  0
 13 43  1  0
 14 44  1  0
 15 45  1  0
 16 46  1  0
 21 47  1  0
 23 48  1  0
 24 49  1  0
M  END
