
     RDKit          3D

 60 61  0  0  0  0  0  0  0  0999 V2000
 -129.9130   66.6310   36.2780 C   0  0  0  0  0  0  0  0  0  0  0  0
 -128.7190   67.5730   36.2120 C   0  0  0  0  0  0  0  0  0  0  0  0
 -127.5750   66.7240   36.7730 C   0  0  2  0  0  0  0  0  0  0  0  0
 -127.9350   65.3540   36.3910 N   0  0  0  0  0  0  0  0  0  0  0  0
 -129.3050   65.2870   35.9040 C   0  0  0  0  0  0  0  0  0  0  0  0
 -126.9580   64.3850   36.3180 C   0  0  0  0  0  0  0  0  0  0  0  0
 -125.8000   64.6550   36.6650 O   0  0  0  0  0  0  0  0  0  0  0  0
 -127.2480   62.9870   35.7120 C   0  0  2  0  0  0  0  0  0  0  0  0
 -126.2360   61.9900   36.3220 C   0  0  0  0  0  0  0  0  0  0  0  0
 -125.8240   60.8770   35.3500 C   0  0  0  0  0  0  0  0  0  0  0  0
 -124.3430   60.9960   34.9710 C   0  0  0  0  0  0  0  0  0  0  0  0
 -123.8040   62.4250   35.0630 C   0  0  0  0  0  0  0  0  0  0  0  0
 -123.9860   63.1860   33.8330 N   0  0  0  0  0  0  0  0  0  0  0  0
 -127.2180   62.9120   34.2300 N   0  0  0  0  0  0  0  0  0  0  0  0
 -128.5300   62.6830   33.5510 C   0  0  1  0  0  0  0  0  0  0  0  0
 -128.3870   62.2620   32.0750 C   0  0  0  0  0  0  0  0  0  0  0  0
 -127.1690   61.3660   31.8040 C   0  0  0  0  0  0  0  0  0  0  0  0
 -126.1590   61.9360   30.8430 C   0  0  0  0  0  0  0  0  0  0  0  0
 -125.9190   63.3160   30.7970 C   0  0  0  0  0  0  0  0  0  0  0  0
 -124.9890   63.8420   29.8980 C   0  0  0  0  0  0  0  0  0  0  0  0
 -124.2880   62.9960   29.0430 C   0  0  0  0  0  0  0  0  0  0  0  0
 -124.5150   61.6230   29.0840 C   0  0  0  0  0  0  0  0  0  0  0  0
 -125.4450   61.0940   29.9800 C   0  0  0  0  0  0  0  0  0  0  0  0
 -129.4220   61.7700   34.3960 C   0  0  0  0  0  0  0  0  0  0  0  0
 -129.1910   60.5970   34.6550 O   0  0  0  0  0  0  0  0  0  0  0  0
 -130.6020   62.3340   34.7160 O   0  0  0  0  0  0  0  0  0  0  0  0
 -127.4090   66.9990   38.2740 C   0  0  0  0  0  0  0  0  0  0  0  0
 -126.4840   67.6310   38.7710 O   0  0  0  0  0  0  0  0  0  0  0  0
 -128.3730   66.5180   39.0890 O   0  0  0  0  0  0  0  0  0  0  0  0
 -130.3406   66.6040   37.2911 H   0  0  0  0  0  0  0  0  0  0  0  0
 -130.7413   66.9319   35.6197 H   0  0  0  0  0  0  0  0  0  0  0  0
 -128.5131   67.8774   35.1752 H   0  0  0  0  0  0  0  0  0  0  0  0
 -128.8756   68.5090   36.7682 H   0  0  0  0  0  0  0  0  0  0  0  0
 -126.5745   66.9504   36.3758 H   0  0  0  0  0  0  0  0  0  0  0  0
 -129.3227   65.1430   34.8136 H   0  0  0  0  0  0  0  0  0  0  0  0
 -129.8608   64.4430   36.3385 H   0  0  0  0  0  0  0  0  0  0  0  0
 -128.2882   62.7384   35.9694 H   0  0  0  0  0  0  0  0  0  0  0  0
 -125.3345   62.5453   36.6202 H   0  0  0  0  0  0  0  0  0  0  0  0
 -126.7276   61.5091   37.1805 H   0  0  0  0  0  0  0  0  0  0  0  0
 -125.9954   59.9011   35.8277 H   0  0  0  0  0  0  0  0  0  0  0  0
 -126.4276   60.9707   34.4352 H   0  0  0  0  0  0  0  0  0  0  0  0
 -123.7573   60.3583   35.6495 H   0  0  0  0  0  0  0  0  0  0  0  0
 -124.2508   60.6817   33.9209 H   0  0  0  0  0  0  0  0  0  0  0  0
 -124.3293   62.9454   35.8774 H   0  0  0  0  0  0  0  0  0  0  0  0
 -122.7219   62.3557   35.2483 H   0  0  0  0  0  0  0  0  0  0  0  0
 -124.2194   64.1621   34.0645 H   0  0  0  0  0  0  0  0  0  0  0  0
 -123.1156   63.1624   33.2827 H   0  0  0  0  0  0  0  0  0  0  0  0
 -126.8339   63.8008   33.8787 H   0  0  0  0  0  0  0  0  0  0  0  0
 -129.0526   63.6487   33.4853 H   0  0  0  0  0  0  0  0  0  0  0  0
 -129.2940   61.7135   31.7808 H   0  0  0  0  0  0  0  0  0  0  0  0
 -128.2453   63.1828   31.4902 H   0  0  0  0  0  0  0  0  0  0  0  0
 -126.6615   61.1815   32.7623 H   0  0  0  0  0  0  0  0  0  0  0  0
 -127.5593   60.4520   31.3325 H   0  0  0  0  0  0  0  0  0  0  0  0
 -126.4666   63.9889   31.4732 H   0  0  0  0  0  0  0  0  0  0  0  0
 -124.8099   64.9268   29.8653 H   0  0  0  0  0  0  0  0  0  0  0  0
 -123.5554   63.4120   28.3357 H   0  0  0  0  0  0  0  0  0  0  0  0
 -123.9605   60.9542   28.4092 H   0  0  0  0  0  0  0  0  0  0  0  0
 -125.6188   60.0082   30.0090 H   0  0  0  0  0  0  0  0  0  0  0  0
 -131.2587   61.8324   35.2613 H   0  0  0  0  0  0  0  0  0  0  0  0
 -128.3150   66.6670   40.0660 H   0  0  0  0  0  0  0  0  0  0  0  0
  1  2  1  0
  2  3  1  0
  3  4  1  0
  4  5  1  0
  4  6  1  0
  6  7  2  0
  6  8  1  0
  8  9  1  0
  9 10  1  0
 10 11  1  0
 11 12  1  0
 12 13  1  0
  8 14  1  0
 14 15  1  0
 15 16  1  0
 16 17  1  0
 17 18  1  0
 18 19  2  0
 19 20  1  0
 20 21  2  0
 21 22  1  0
 22 23  2  0
 15 24  1  0
 24 25  2  0
 24 26  1  0
  3 27  1  0
 27 28  2  0
 27 29  1  0
  5  1  1  0
 23 18  1  0
  1 30  1  0
  1 31  1  0
  2 32  1  0
  2 33  1  0
  3 34  1  6
  5 35  1  0
  5 36  1  0
  8 37  1  1
  9 38  1  0
  9 39  1  0
 10 40  1  0
 10 41  1  0
 11 42  1  0
 11 43  1  0
 12 44  1  0
 12 45  1  0
 13 46  1  0
 13 47  1  0
 14 48  1  0
 15 49  1  6
 16 50  1  0
 16 51  1  0
 17 52  1  0
 17 53  1  0
 19 54  1  0
 20 55  1  0
 21 56  1  0
 22 57  1  0
 23 58  1  0
 26 59  1  0
 29 60  1  0
M  END
