
     RDKit          3D

 42 45  0  0  0  0  0  0  0  0999 V2000
   -7.6680   -6.9480   12.6640 C   0  0  0  0  0  0  0  0  0  0  0  0
   -7.0830   -5.8850   13.6180 C   0  0  2  0  0  0  0  0  0  0  0  0
   -8.2610   -5.2050   14.3310 C   0  0  0  0  0  0  0  0  0  0  0  0
   -8.9170   -4.1400   13.4600 C   0  0  0  0  0  0  0  0  0  0  0  0
   -7.8450   -3.1140   13.1460 C   0  0  2  0  0  0  0  0  0  0  0  0
   -8.3700   -1.7260   12.7530 C   0  0  1  0  0  0  0  0  0  0  0  0
   -7.1980   -0.7500   12.8580 C   0  0  0  0  0  0  0  0  0  0  0  0
   -7.3460    0.4480   13.0610 O   0  0  0  0  0  0  0  0  0  0  0  0
   -5.9620   -1.3290   12.7700 O   0  0  0  0  0  0  0  0  0  0  0  0
   -5.9280   -2.3840   11.8130 C   0  0  2  0  0  0  0  0  0  0  0  0
   -6.7140   -3.6520   12.2280 C   0  0  1  0  0  0  0  0  0  0  0  0
   -6.0320   -4.8680   12.9670 C   0  0  2  0  0  0  0  0  0  0  0  0
   -5.0770   -5.7270   12.0970 C   0  0  0  0  0  0  0  0  0  0  0  0
   -4.0910   -5.0060   11.2040 C   0  0  0  0  0  0  0  0  0  0  0  0
   -4.7130   -3.8110   10.4970 C   0  0  2  0  0  0  0  0  0  0  0  0
   -4.6260   -2.7200   11.4190 O   0  0  0  0  0  0  0  0  0  0  0  0
   -6.0360   -4.0880    9.9510 O   0  0  0  0  0  0  0  0  0  0  0  0
   -7.1370   -4.2100   10.9760 O   0  0  0  0  0  0  0  0  0  0  0  0
   -3.8440   -3.4120    9.3030 C   0  0  0  0  0  0  0  0  0  0  0  0
   -9.1100   -1.6370   11.4280 C   0  0  0  0  0  0  0  0  0  0  0  0
   -8.1160   -7.7621   13.2526 H   0  0  0  0  0  0  0  0  0  0  0  0
   -8.4393   -6.4867   12.0297 H   0  0  0  0  0  0  0  0  0  0  0  0
   -6.8656   -7.3528   12.0297 H   0  0  0  0  0  0  0  0  0  0  0  0
   -6.4418   -6.3950   14.3521 H   0  0  0  0  0  0  0  0  0  0  0  0
   -9.0114   -5.9684   14.5844 H   0  0  0  0  0  0  0  0  0  0  0  0
   -7.8731   -4.7132   15.2352 H   0  0  0  0  0  0  0  0  0  0  0  0
   -9.2949   -4.5903   12.5303 H   0  0  0  0  0  0  0  0  0  0  0  0
   -9.7700   -3.6760   13.9768 H   0  0  0  0  0  0  0  0  0  0  0  0
   -7.3593   -2.9340   14.1164 H   0  0  0  0  0  0  0  0  0  0  0  0
   -9.1713   -1.4590   13.4577 H   0  0  0  0  0  0  0  0  0  0  0  0
   -6.4536   -1.9636   10.9429 H   0  0  0  0  0  0  0  0  0  0  0  0
   -5.4451   -4.3490   13.7391 H   0  0  0  0  0  0  0  0  0  0  0  0
   -4.4954   -6.3636   12.7800 H   0  0  0  0  0  0  0  0  0  0  0  0
   -5.7420   -6.2586   11.4005 H   0  0  0  0  0  0  0  0  0  0  0  0
   -3.2498   -4.6537   11.8191 H   0  0  0  0  0  0  0  0  0  0  0  0
   -3.7576   -5.7153   10.4322 H   0  0  0  0  0  0  0  0  0  0  0  0
   -2.9000   -2.9786    9.6651 H   0  0  0  0  0  0  0  0  0  0  0  0
   -3.6288   -4.3015    8.6927 H   0  0  0  0  0  0  0  0  0  0  0  0
   -4.3783   -2.6690    8.6927 H   0  0  0  0  0  0  0  0  0  0  0  0
  -10.1859   -1.5076   11.6169 H   0  0  0  0  0  0  0  0  0  0  0  0
   -8.7325   -0.7778   10.8542 H   0  0  0  0  0  0  0  0  0  0  0  0
   -8.9470   -2.5612   10.8542 H   0  0  0  0  0  0  0  0  0  0  0  0
  1  2  1  0
  2  3  1  0
  3  4  1  0
  4  5  1  0
  5  6  1  0
  6  7  1  0
  7  8  2  0
  7  9  1  0
  9 10  1  0
 10 11  1  0
 11 12  1  0
 12 13  1  0
 13 14  1  0
 14 15  1  0
 15 16  1  0
 15 17  1  0
 17 18  1  0
 15 19  1  6
  6 20  1  0
 12  2  1  0
 11  5  1  0
 16 10  1  0
 11 18  1  6
  1 21  1  0
  1 22  1  0
  1 23  1  0
  2 24  1  1
  3 25  1  0
  3 26  1  0
  4 27  1  0
  4 28  1  0
  5 29  1  6
  6 30  1  6
 10 31  1  1
 12 32  1  6
 13 33  1  0
 13 34  1  0
 14 35  1  0
 14 36  1  0
 19 37  1  0
 19 38  1  0
 19 39  1  0
 20 40  1  0
 20 41  1  0
 20 42  1  0
M  END
