
     RDKit          3D

 43 45  0  0  0  0  0  0  0  0999 V2000
 -128.9060   68.4270   36.3050 C   0  0  0  0  0  0  0  0  0  0  0  0
 -128.5880   66.9740   36.1440 C   0  0  0  0  0  0  0  0  0  0  0  0
 -129.3800   66.1640   35.3500 C   0  0  0  0  0  0  0  0  0  0  0  0
 -129.1660   64.8460   35.1590 N   0  0  0  0  0  0  0  0  0  0  0  0
 -128.0870   64.2750   35.7540 C   0  0  0  0  0  0  0  0  0  0  0  0
 -127.2190   65.0000   36.5850 C   0  0  0  0  0  0  0  0  0  0  0  0
 -127.5260   66.3520   36.8070 C   0  0  0  0  0  0  0  0  0  0  0  0
 -126.7280   67.1060   37.6330 O   0  0  0  0  0  0  0  0  0  0  0  0
 -125.7090   67.7620   36.8750 C   0  0  0  0  0  0  0  0  0  0  0  0
 -126.0410   64.3530   37.2600 C   0  0  0  0  0  0  0  0  0  0  0  0
 -127.8920   62.8090   35.4610 C   0  0  0  0  0  0  0  0  0  0  0  0
 -129.1220   62.1930   34.2690 S   0  0  0  0  0  0  0  0  0  0  0  0
 -129.5650   60.8130   34.6670 O   0  0  0  0  0  0  0  0  0  0  0  0
 -127.9690   61.9260   32.9110 C   0  0  0  0  0  0  0  0  0  0  0  0
 -127.6680   60.7550   32.3900 N   0  0  0  0  0  0  0  0  0  0  0  0
 -126.7580   61.0350   31.4000 C   0  0  0  0  0  0  0  0  0  0  0  0
 -126.5060   62.4000   31.3200 C   0  0  0  0  0  0  0  0  0  0  0  0
 -127.2930   62.9450   32.3000 N   0  0  0  0  0  0  0  0  0  0  0  0
 -125.6230   62.9620   30.3970 C   0  0  0  0  0  0  0  0  0  0  0  0
 -124.9670   62.0870   29.5180 C   0  0  0  0  0  0  0  0  0  0  0  0
 -125.2030   60.7090   29.5790 C   0  0  0  0  0  0  0  0  0  0  0  0
 -126.0980   60.1690   30.5180 C   0  0  0  0  0  0  0  0  0  0  0  0
 -124.1170   62.7130   28.6430 O   0  0  0  0  0  0  0  0  0  0  0  0
 -123.8310   64.0840   28.8880 C   0  0  0  0  0  0  0  0  0  0  0  0
 -128.9601   68.6741   37.3755 H   0  0  0  0  0  0  0  0  0  0  0  0
 -128.1185   69.0296   35.8289 H   0  0  0  0  0  0  0  0  0  0  0  0
 -129.8732   68.6456   35.8289 H   0  0  0  0  0  0  0  0  0  0  0  0
 -130.2399   66.6246   34.8415 H   0  0  0  0  0  0  0  0  0  0  0  0
 -124.9852   68.2280   37.5598 H   0  0  0  0  0  0  0  0  0  0  0  0
 -125.1927   67.0262   36.2409 H   0  0  0  0  0  0  0  0  0  0  0  0
 -126.1650   68.5366   36.2409 H   0  0  0  0  0  0  0  0  0  0  0  0
 -126.1618   64.4193   38.3513 H   0  0  0  0  0  0  0  0  0  0  0  0
 -125.9822   63.2960   36.9612 H   0  0  0  0  0  0  0  0  0  0  0  0
 -125.1174   64.8704   36.9612 H   0  0  0  0  0  0  0  0  0  0  0  0
 -126.8851   62.6594   35.0441 H   0  0  0  0  0  0  0  0  0  0  0  0
 -128.0155   62.2514   36.4011 H   0  0  0  0  0  0  0  0  0  0  0  0
 -127.3630   63.9454   32.5349 H   0  0  0  0  0  0  0  0  0  0  0  0
 -125.4483   64.0474   30.3601 H   0  0  0  0  0  0  0  0  0  0  0  0
 -124.6800   60.0384   28.8813 H   0  0  0  0  0  0  0  0  0  0  0  0
 -126.2775   59.0846   30.5600 H   0  0  0  0  0  0  0  0  0  0  0  0
 -123.7937   64.2626   29.9728 H   0  0  0  0  0  0  0  0  0  0  0  0
 -122.8598   64.3416   28.4404 H   0  0  0  0  0  0  0  0  0  0  0  0
 -124.6182   64.7085   28.4404 H   0  0  0  0  0  0  0  0  0  0  0  0
  1  2  1  0
  2  3  2  0
  3  4  1  0
  4  5  2  0
  5  6  1  0
  6  7  2  0
  7  8  1  0
  8  9  1  0
  6 10  1  0
  5 11  1  0
 11 12  1  0
 12 13  2  0
 12 14  1  0
 14 15  2  0
 15 16  1  0
 16 17  2  0
 17 18  1  0
 17 19  1  0
 19 20  2  0
 20 21  1  0
 21 22  2  0
 20 23  1  0
 23 24  1  0
  7  2  1  0
 18 14  1  0
 22 16  1  0
  1 25  1  0
  1 26  1  0
  1 27  1  0
  3 28  1  0
  9 29  1  0
  9 30  1  0
  9 31  1  0
 10 32  1  0
 10 33  1  0
 10 34  1  0
 11 35  1  0
 11 36  1  0
 18 37  1  0
 19 38  1  0
 21 39  1  0
 22 40  1  0
 24 41  1  0
 24 42  1  0
 24 43  1  0
M  END
