
     RDKit          3D

 33 34  0  0  0  0  0  0  0  0999 V2000
 -112.6000   62.7200   33.1230 C   0  0  0  0  0  0  0  0  0  0  0  0
 -113.0590   63.1860   31.7430 C   0  0  2  0  0  0  0  0  0  0  0  0
 -114.0030   64.3880   31.8910 C   0  0  0  0  0  0  0  0  0  0  0  0
 -113.5780   65.5000   31.0640 N   0  0  0  0  0  0  0  0  0  0  0  0
 -112.4810   66.2890   31.2740 C   0  0  0  0  0  0  0  0  0  0  0  0
 -112.4010   67.2620   30.3910 N   0  0  0  0  0  0  0  0  0  0  0  0
 -113.4920   67.0780   29.5630 C   0  0  0  0  0  0  0  0  0  0  0  0
 -113.9620   67.7740   28.4370 C   0  0  0  0  0  0  0  0  0  0  0  0
 -115.0750   67.3210   27.8160 N   0  0  0  0  0  0  0  0  0  0  0  0
 -115.6990   66.2360   28.3260 C   0  0  0  0  0  0  0  0  0  0  0  0
 -115.3540   65.4990   29.4030 N   0  0  0  0  0  0  0  0  0  0  0  0
 -114.2330   65.9780   29.9640 C   0  0  0  0  0  0  0  0  0  0  0  0
 -113.3320   68.8980   27.9200 N   0  0  0  0  0  0  0  0  0  0  0  0
 -113.7860   62.1410   31.0790 O   0  0  0  0  0  0  0  0  0  0  0  0
 -113.0110   60.9520   30.8680 C   0  0  0  0  0  0  0  0  0  0  0  0
 -112.2760   61.0800   29.2270 P   0  0  0  0  0  0  0  0  0  0  0  0
 -112.9420   61.9960   28.2560 O   0  0  0  0  0  0  0  0  0  0  0  0
 -110.7300   61.4200   29.4950 O   0  0  0  0  0  0  0  0  0  0  0  0
 -112.1640   59.5620   28.7180 O   0  0  0  0  0  0  0  0  0  0  0  0
 -113.1474   63.2758   33.8985 H   0  0  0  0  0  0  0  0  0  0  0  0
 -112.8009   61.6440   33.2322 H   0  0  0  0  0  0  0  0  0  0  0  0
 -111.5211   62.9045   33.2322 H   0  0  0  0  0  0  0  0  0  0  0  0
 -112.1674   63.4578   31.1589 H   0  0  0  0  0  0  0  0  0  0  0  0
 -115.0170   64.0857   31.5905 H   0  0  0  0  0  0  0  0  0  0  0  0
 -113.9875   64.7127   32.9419 H   0  0  0  0  0  0  0  0  0  0  0  0
 -111.7532   66.1298   32.0833 H   0  0  0  0  0  0  0  0  0  0  0  0
 -116.6057   65.9114   27.7944 H   0  0  0  0  0  0  0  0  0  0  0  0
 -113.7201   69.3704   27.0911 H   0  0  0  0  0  0  0  0  0  0  0  0
 -112.4765   69.2595   28.3654 H   0  0  0  0  0  0  0  0  0  0  0  0
 -112.2212   60.8766   31.6300 H   0  0  0  0  0  0  0  0  0  0  0  0
 -113.6430   60.0549   30.9442 H   0  0  0  0  0  0  0  0  0  0  0  0
 -110.5644   61.4564   30.4704 H   0  0  0  0  0  0  0  0  0  0  0  0
 -112.1192   58.9547   29.4985 H   0  0  0  0  0  0  0  0  0  0  0  0
  1  2  1  0
  2  3  1  0
  3  4  1  0
  4  5  1  0
  5  6  2  0
  6  7  1  0
  7  8  2  0
  8  9  1  0
  9 10  2  0
 10 11  1  0
 11 12  2  0
  8 13  1  0
  2 14  1  0
 14 15  1  0
 15 16  1  0
 16 17  2  0
 16 18  1  0
 16 19  1  0
 12  4  1  0
 12  7  1  0
  1 20  1  0
  1 21  1  0
  1 22  1  0
  2 23  1  6
  3 24  1  0
  3 25  1  0
  5 26  1  0
 10 27  1  0
 13 28  1  0
 13 29  1  0
 15 30  1  0
 15 31  1  0
 18 32  1  0
 19 33  1  0
M  END
