
     RDKit          3D

 48 49  0  0  0  0  0  0  0  0999 V2000
  -22.0290   73.6070   31.7590 C   0  0  0  0  0  0  0  0  0  0  0  0
  -20.5520   73.2270   31.7220 C   0  0  0  0  0  0  0  0  0  0  0  0
  -20.2780   71.8480   32.1690 N   0  0  0  0  0  0  0  0  0  0  0  0
  -19.9220   71.7450   33.5930 C   0  0  0  0  0  0  0  0  0  0  0  0
  -21.0070   71.2290   34.5330 C   0  0  0  0  0  0  0  0  0  0  0  0
  -21.3870   70.9640   31.7670 C   0  0  0  0  0  0  0  0  0  0  0  0
  -21.0590   69.9810   30.6310 C   0  0  0  0  0  0  0  0  0  0  0  0
  -21.8390   68.6620   30.7480 C   0  0  0  0  0  0  0  0  0  0  0  0
  -21.1750   67.4490   30.0610 C   0  0  0  0  0  0  0  0  0  0  0  0
  -20.0760   67.8850   29.0890 C   0  0  0  0  0  0  0  0  0  0  0  0
  -20.6200   66.5490   31.0810 N   0  0  0  0  0  0  0  0  0  0  0  0
  -20.7880   66.7530   32.4630 C   0  0  0  0  0  0  0  0  0  0  0  0
  -19.7790   67.4460   33.1970 C   0  0  0  0  0  0  0  0  0  0  0  0
  -18.5890   67.9510   32.6160 C   0  0  0  0  0  0  0  0  0  0  0  0
  -17.6420   68.6350   33.3770 C   0  0  0  0  0  0  0  0  0  0  0  0
  -17.8680   68.8190   34.7320 C   0  0  0  0  0  0  0  0  0  0  0  0
  -19.0230   68.3180   35.3270 C   0  0  0  0  0  0  0  0  0  0  0  0
  -19.9750   67.6320   34.5880 C   0  0  0  0  0  0  0  0  0  0  0  0
  -21.0450   67.1630   35.2410 N   0  0  0  0  0  0  0  0  0  0  0  0
  -21.9560   66.4690   34.5350 C   0  0  0  0  0  0  0  0  0  0  0  0
  -21.8670   66.2340   33.1750 C   0  0  0  0  0  0  0  0  0  0  0  0
  -16.7100   69.6620   35.6850 Cl  0  0  0  0  0  0  0  0  0  0  0  0
  -22.3596   73.6921   32.8047 H   0  0  0  0  0  0  0  0  0  0  0  0
  -22.1724   74.5713   31.2495 H   0  0  0  0  0  0  0  0  0  0  0  0
  -22.6200   72.8316   31.2495 H   0  0  0  0  0  0  0  0  0  0  0  0
  -20.1928   73.3336   30.6878 H   0  0  0  0  0  0  0  0  0  0  0  0
  -20.0320   73.8985   32.4211 H   0  0  0  0  0  0  0  0  0  0  0  0
  -19.0604   71.0659   33.6733 H   0  0  0  0  0  0  0  0  0  0  0  0
  -19.7240   72.7772   33.9177 H   0  0  0  0  0  0  0  0  0  0  0  0
  -20.6907   71.3794   35.5757 H   0  0  0  0  0  0  0  0  0  0  0  0
  -21.9421   71.7788   34.3505 H   0  0  0  0  0  0  0  0  0  0  0  0
  -21.1706   70.1566   34.3505 H   0  0  0  0  0  0  0  0  0  0  0  0
  -21.6920   70.3784   32.6468 H   0  0  0  0  0  0  0  0  0  0  0  0
  -22.1797   71.6227   31.3826 H   0  0  0  0  0  0  0  0  0  0  0  0
  -21.3107   70.4553   29.6709 H   0  0  0  0  0  0  0  0  0  0  0  0
  -19.9874   69.7416   30.6963 H   0  0  0  0  0  0  0  0  0  0  0  0
  -21.9553   68.4278   31.8165 H   0  0  0  0  0  0  0  0  0  0  0  0
  -22.7959   68.8233   30.2300 H   0  0  0  0  0  0  0  0  0  0  0  0
  -21.9440   66.9202   29.4787 H   0  0  0  0  0  0  0  0  0  0  0  0
  -19.2005   68.2323   29.6573 H   0  0  0  0  0  0  0  0  0  0  0  0
  -19.7876   67.0332   28.4556 H   0  0  0  0  0  0  0  0  0  0  0  0
  -20.4500   68.7029   28.4556 H   0  0  0  0  0  0  0  0  0  0  0  0
  -20.0814   65.7283   30.7691 H   0  0  0  0  0  0  0  0  0  0  0  0
  -18.4087   67.8000   31.5414 H   0  0  0  0  0  0  0  0  0  0  0  0
  -16.7264   69.0240   32.9076 H   0  0  0  0  0  0  0  0  0  0  0  0
  -19.1834   68.4694   36.4047 H   0  0  0  0  0  0  0  0  0  0  0  0
  -22.8256   66.0633   35.0728 H   0  0  0  0  0  0  0  0  0  0  0  0
  -22.6399   65.6436   32.6611 H   0  0  0  0  0  0  0  0  0  0  0  0
  1  2  1  0
  2  3  1  0
  3  4  1  0
  4  5  1  0
  3  6  1  0
  6  7  1  0
  7  8  1  0
  8  9  1  0
  9 10  1  0
  9 11  1  0
 11 12  1  0
 12 13  2  0
 13 14  1  0
 14 15  2  0
 15 16  1  0
 16 17  2  0
 17 18  1  0
 18 19  2  0
 19 20  1  0
 20 21  2  0
 16 22  1  0
 21 12  1  0
 18 13  1  0
  1 23  1  0
  1 24  1  0
  1 25  1  0
  2 26  1  0
  2 27  1  0
  4 28  1  0
  4 29  1  0
  5 30  1  0
  5 31  1  0
  5 32  1  0
  6 33  1  0
  6 34  1  0
  7 35  1  0
  7 36  1  0
  8 37  1  0
  8 38  1  0
  9 39  1  0
 10 40  1  0
 10 41  1  0
 10 42  1  0
 11 43  1  0
 14 44  1  0
 15 45  1  0
 17 46  1  0
 20 47  1  0
 21 48  1  0
M  END
