
     RDKit          3D

 82 84  0  0  0  0  0  0  0  0999 V2000
   -0.2830   -5.1390   12.4590 C   0  0  0  0  0  0  0  0  0  0  0  0
   -1.6630   -4.6660   12.0670 C   0  0  0  0  0  0  0  0  0  0  0  0
   -1.7430   -3.5490   11.0340 C   0  0  2  0  0  0  0  0  0  0  0  0
   -2.0410   -3.2450   12.4690 C   0  0  1  0  0  0  0  0  0  0  0  0
   -3.4510   -2.6960   12.5430 C   0  0  2  0  0  0  0  0  0  0  0  0
   -3.9950   -2.9270   11.2000 N   0  0  0  0  0  0  0  0  0  0  0  0
   -2.9590   -3.2240   10.2230 C   0  0  0  0  0  0  0  0  0  0  0  0
   -5.2940   -2.7380   10.7850 C   0  0  0  0  0  0  0  0  0  0  0  0
   -5.5900   -2.7790    9.5840 O   0  0  0  0  0  0  0  0  0  0  0  0
   -6.4020   -2.4650   11.8390 C   0  0  2  0  0  0  0  0  0  0  0  0
   -6.7970   -3.7220   12.6770 C   0  0  0  0  0  0  0  0  0  0  0  0
   -8.3240   -3.7070   12.9140 C   0  0  0  0  0  0  0  0  0  0  0  0
   -6.1090   -3.6950   14.0530 C   0  0  0  0  0  0  0  0  0  0  0  0
   -6.4350   -5.0490   11.9800 C   0  0  0  0  0  0  0  0  0  0  0  0
   -7.5430   -1.9510   11.0740 N   0  0  0  0  0  0  0  0  0  0  0  0
   -7.8970   -0.6280   11.1440 C   0  0  0  0  0  0  0  0  0  0  0  0
   -7.4420    0.1570   11.9620 O   0  0  0  0  0  0  0  0  0  0  0  0
   -8.8370   -0.3300   10.1920 N   0  0  0  0  0  0  0  0  0  0  0  0
   -9.4230    1.0030    9.9960 C   0  0  0  0  0  0  0  0  0  0  0  0
   -9.8720    1.6130   11.3330 C   0  0  0  0  0  0  0  0  0  0  0  0
  -10.6580    0.8480    9.0890 C   0  0  0  0  0  0  0  0  0  0  0  0
   -8.4290    1.9400    9.2910 C   0  0  0  0  0  0  0  0  0  0  0  0
   -3.3990   -1.1770   12.8530 C   0  0  0  0  0  0  0  0  0  0  0  0
   -4.3880   -0.4480   12.8600 O   0  0  0  0  0  0  0  0  0  0  0  0
   -2.1200   -0.6950   13.0520 N   0  0  0  0  0  0  0  0  0  0  0  0
   -1.8860    0.7380   13.3120 C   0  0  0  0  0  0  0  0  0  0  0  0
   -1.1150    0.8540   14.6320 C   0  0  0  0  0  0  0  0  0  0  0  0
   -1.6880    1.7910   15.6910 C   0  0  0  0  0  0  0  0  0  0  0  0
   -0.7970    2.4720   16.7630 C   0  0  0  0  0  0  0  0  0  0  0  0
   -2.0320    2.4570   17.6900 C   0  0  0  0  0  0  0  0  0  0  0  0
   -2.5630    1.2680   16.8590 C   0  0  0  0  0  0  0  0  0  0  0  0
   -1.0730    1.2150   12.1170 C   0  0  0  0  0  0  0  0  0  0  0  0
   -0.8250    2.3980   11.8770 O   0  0  0  0  0  0  0  0  0  0  0  0
   -0.4820    0.1370   11.2020 C   0  0  0  0  0  0  0  0  0  0  0  0
    0.2730   -0.7260   11.6120 O   0  0  0  0  0  0  0  0  0  0  0  0
   -0.9020    0.2120    9.9010 N   0  0  0  0  0  0  0  0  0  0  0  0
   -2.6910   -5.7650   12.0900 C   0  0  0  0  0  0  0  0  0  0  0  0
   -0.2026   -5.1666   13.5557 H   0  0  0  0  0  0  0  0  0  0  0  0
   -0.1119   -6.1471   12.0534 H   0  0  0  0  0  0  0  0  0  0  0  0
    0.4705   -4.4478   12.0534 H   0  0  0  0  0  0  0  0  0  0  0  0
   -1.0346   -3.3177   10.2248 H   0  0  0  0  0  0  0  0  0  0  0  0
   -1.6830   -2.6729   13.3377 H   0  0  0  0  0  0  0  0  0  0  0  0
   -4.0605   -3.1678   13.3278 H   0  0  0  0  0  0  0  0  0  0  0  0
   -3.2495   -4.0831    9.6005 H   0  0  0  0  0  0  0  0  0  0  0  0
   -2.7849   -2.3822    9.5366 H   0  0  0  0  0  0  0  0  0  0  0  0
   -6.0413   -1.7492   12.5924 H   0  0  0  0  0  0  0  0  0  0  0  0
   -8.5273   -3.7050   13.9951 H   0  0  0  0  0  0  0  0  0  0  0  0
   -8.7570   -2.8046   12.4578 H   0  0  0  0  0  0  0  0  0  0  0  0
   -8.7747   -4.6008   12.4578 H   0  0  0  0  0  0  0  0  0  0  0  0
   -6.8718   -3.7249   14.8450 H   0  0  0  0  0  0  0  0  0  0  0  0
   -5.4465   -4.5678   14.1489 H   0  0  0  0  0  0  0  0  0  0  0  0
   -5.5169   -2.7729   14.1489 H   0  0  0  0  0  0  0  0  0  0  0  0
   -6.2256   -5.8168   12.7394 H   0  0  0  0  0  0  0  0  0  0  0  0
   -7.2771   -5.3748   11.3517 H   0  0  0  0  0  0  0  0  0  0  0  0
   -5.5441   -4.9020   11.3517 H   0  0  0  0  0  0  0  0  0  0  0  0
   -8.0851   -2.5917   10.4768 H   0  0  0  0  0  0  0  0  0  0  0  0
   -9.1533   -1.0904    9.5734 H   0  0  0  0  0  0  0  0  0  0  0  0
   -9.4442    1.0318   12.1632 H   0  0  0  0  0  0  0  0  0  0  0  0
   -9.5233    2.6543   11.3964 H   0  0  0  0  0  0  0  0  0  0  0  0
  -10.9699    1.5895   11.3964 H   0  0  0  0  0  0  0  0  0  0  0  0
  -11.5580    0.7350    9.7112 H   0  0  0  0  0  0  0  0  0  0  0  0
  -10.7609    1.7403    8.4540 H   0  0  0  0  0  0  0  0  0  0  0  0
  -10.5372   -0.0420    8.4540 H   0  0  0  0  0  0  0  0  0  0  0  0
   -7.8458    2.4898   10.0444 H   0  0  0  0  0  0  0  0  0  0  0  0
   -7.7489    1.3468    8.6620 H   0  0  0  0  0  0  0  0  0  0  0  0
   -8.9810    2.6539    8.6620 H   0  0  0  0  0  0  0  0  0  0  0  0
   -1.3205   -1.3436   13.0185 H   0  0  0  0  0  0  0  0  0  0  0  0
   -2.7987    1.3431   13.4163 H   0  0  0  0  0  0  0  0  0  0  0  0
   -1.0609   -0.1519   15.0738 H   0  0  0  0  0  0  0  0  0  0  0  0
   -0.1449    1.2939   14.3575 H   0  0  0  0  0  0  0  0  0  0  0  0
   -2.1176    2.3622   14.8548 H   0  0  0  0  0  0  0  0  0  0  0  0
    0.0485    1.8618   17.1134 H   0  0  0  0  0  0  0  0  0  0  0  0
   -0.2392    3.3965   16.5530 H   0  0  0  0  0  0  0  0  0  0  0  0
   -1.8127    2.2194   18.7414 H   0  0  0  0  0  0  0  0  0  0  0  0
   -2.6379    3.3594   17.8587 H   0  0  0  0  0  0  0  0  0  0  0  0
   -2.2767    0.2766   17.2399 H   0  0  0  0  0  0  0  0  0  0  0  0
   -3.6398    1.0784   16.7385 H   0  0  0  0  0  0  0  0  0  0  0  0
   -0.5596   -0.4699    9.2092 H   0  0  0  0  0  0  0  0  0  0  0  0
   -1.5604    0.9503    9.6141 H   0  0  0  0  0  0  0  0  0  0  0  0
   -2.9306   -6.0212   13.1326 H   0  0  0  0  0  0  0  0  0  0  0  0
   -3.6028   -5.4250   11.5771 H   0  0  0  0  0  0  0  0  0  0  0  0
   -2.2909   -6.6521   11.5771 H   0  0  0  0  0  0  0  0  0  0  0  0
  1  2  1  0
  2  3  1  0
  3  4  1  0
  4  5  1  0
  5  6  1  0
  6  7  1  0
  6  8  1  0
  8  9  2  0
  8 10  1  0
 10 11  1  0
 11 12  1  0
 11 13  1  0
 11 14  1  0
 10 15  1  0
 15 16  1  0
 16 17  2  0
 16 18  1  0
 18 19  1  0
 19 20  1  0
 19 21  1  0
 19 22  1  0
  5 23  1  0
 23 24  2  0
 23 25  1  0
 25 26  1  0
 26 27  1  0
 27 28  1  0
 28 29  1  0
 29 30  1  0
 30 31  1  0
 26 32  1  0
 32 33  2  0
 32 34  1  0
 34 35  2  0
 34 36  1  0
  2 37  1  0
  4  2  1  0
  7  3  1  0
 31 28  1  0
  1 38  1  0
  1 39  1  0
  1 40  1  0
  3 41  1  6
  4 42  1  1
  5 43  1  1
  7 44  1  0
  7 45  1  0
 10 46  1  1
 12 47  1  0
 12 48  1  0
 12 49  1  0
 13 50  1  0
 13 51  1  0
 13 52  1  0
 14 53  1  0
 14 54  1  0
 14 55  1  0
 15 56  1  0
 18 57  1  0
 20 58  1  0
 20 59  1  0
 20 60  1  0
 21 61  1  0
 21 62  1  0
 21 63  1  0
 22 64  1  0
 22 65  1  0
 22 66  1  0
 25 67  1  0
 26 68  1  0
 27 69  1  0
 27 70  1  0
 28 71  1  0
 29 72  1  0
 29 73  1  0
 30 74  1  0
 30 75  1  0
 31 76  1  0
 31 77  1  0
 36 78  1  0
 36 79  1  0
 37 80  1  0
 37 81  1  0
 37 82  1  0
M  END
