
     RDKit          3D

 31 32  0  0  0  0  0  0  0  0999 V2000
  -17.5160   68.2280   15.2630 C   0  0  0  0  0  0  0  0  0  0  0  0
  -18.0930   69.5350   14.8300 C   0  0  0  0  0  0  0  0  0  0  0  0
  -18.5300   70.4830   15.6680 C   0  0  0  0  0  0  0  0  0  0  0  0
  -19.0550   71.6800   15.2230 N   0  0  0  0  0  0  0  0  0  0  0  0
  -19.1900   71.9570   13.8720 C   0  0  0  0  0  0  0  0  0  0  0  0
  -19.6880   72.9950   13.4390 O   0  0  0  0  0  0  0  0  0  0  0  0
  -18.7300   70.9950   13.0160 N   0  0  0  0  0  0  0  0  0  0  0  0
  -18.1900   69.7940   13.3740 C   0  0  0  0  0  0  0  0  0  0  0  0
  -17.8120   68.9760   12.5420 O   0  0  0  0  0  0  0  0  0  0  0  0
  -19.5790   72.6840   16.1410 C   0  0  1  0  0  0  0  0  0  0  0  0
  -21.0610   72.5080   16.5010 C   0  0  2  0  0  0  0  0  0  0  0  0
  -21.1010   73.0130   17.9270 C   0  0  1  0  0  0  0  0  0  0  0  0
  -19.7720   72.4840   18.4550 C   0  0  1  0  0  0  0  0  0  0  0  0
  -18.8310   72.7210   17.3800 O   0  0  0  0  0  0  0  0  0  0  0  0
  -19.2920   73.1540   19.7400 C   0  0  0  0  0  0  0  0  0  0  0  0
  -18.4820   74.2850   19.4140 O   0  0  0  0  0  0  0  0  0  0  0  0
  -21.1850   74.4400   17.9750 O   0  0  0  0  0  0  0  0  0  0  0  0
  -21.3980   71.1850   16.5080 F   0  0  0  0  0  0  0  0  0  0  0  0
  -17.4958   68.1822   16.3619 H   0  0  0  0  0  0  0  0  0  0  0  0
  -18.1352   67.4067   14.8731 H   0  0  0  0  0  0  0  0  0  0  0  0
  -16.4919   68.1321   14.8731 H   0  0  0  0  0  0  0  0  0  0  0  0
  -18.4686   70.3017   16.7512 H   0  0  0  0  0  0  0  0  0  0  0  0
  -18.7973   71.1954   12.0079 H   0  0  0  0  0  0  0  0  0  0  0  0
  -19.4709   73.6259   15.5832 H   0  0  0  0  0  0  0  0  0  0  0  0
  -21.7396   73.0186   15.8019 H   0  0  0  0  0  0  0  0  0  0  0  0
  -21.9729   72.6836   18.5113 H   0  0  0  0  0  0  0  0  0  0  0  0
  -19.8753   71.4241   18.7306 H   0  0  0  0  0  0  0  0  0  0  0  0
  -20.1611   73.4830   20.3286 H   0  0  0  0  0  0  0  0  0  0  0  0
  -18.7006   72.4370   20.3283 H   0  0  0  0  0  0  0  0  0  0  0  0
  -18.1709   74.7193   20.2475 H   0  0  0  0  0  0  0  0  0  0  0  0
  -21.2025   74.7380   18.9189 H   0  0  0  0  0  0  0  0  0  0  0  0
  1  2  1  0
  2  3  2  0
  3  4  1  0
  4  5  1  0
  5  6  2  0
  5  7  1  0
  7  8  1  0
  8  9  2  0
  4 10  1  0
 10 11  1  0
 11 12  1  0
 12 13  1  0
 13 14  1  0
 13 15  1  0
 15 16  1  0
 12 17  1  0
 11 18  1  0
  8  2  1  0
 14 10  1  0
  1 19  1  0
  1 20  1  0
  1 21  1  0
  3 22  1  0
  7 23  1  0
 10 24  1  1
 11 25  1  1
 12 26  1  6
 13 27  1  1
 15 28  1  0
 15 29  1  0
 16 30  1  0
 17 31  1  0
M  END
