
     RDKit          3D

 40 42  0  0  0  0  0  0  0  0999 V2000
   -1.9220   -7.5410   11.0670 C   0  0  0  0  0  0  0  0  0  0  0  0
   -2.0920   -6.0730   11.3200 C   0  0  0  0  0  0  0  0  0  0  0  0
   -1.5570   -5.4850   12.4710 C   0  0  0  0  0  0  0  0  0  0  0  0
   -1.6890   -4.1110   12.6930 C   0  0  0  0  0  0  0  0  0  0  0  0
   -2.3380   -3.3020   11.7530 C   0  0  0  0  0  0  0  0  0  0  0  0
   -2.8780   -3.8900   10.6020 C   0  0  0  0  0  0  0  0  0  0  0  0
   -2.7440   -5.2640   10.3830 C   0  0  0  0  0  0  0  0  0  0  0  0
   -2.4860   -1.8700   11.9930 C   0  0  0  0  0  0  0  0  0  0  0  0
   -1.4990   -0.9100   11.8680 C   0  0  0  0  0  0  0  0  0  0  0  0
   -2.0470    0.2900   12.3670 C   0  0  0  0  0  0  0  0  0  0  0  0
   -3.3120    0.0970   12.7740 N   0  0  0  0  0  0  0  0  0  0  0  0
   -3.6130   -1.1990   12.4700 N   0  0  0  0  0  0  0  0  0  0  0  0
   -4.9610   -1.6460   12.6530 C   0  0  0  0  0  0  0  0  0  0  0  0
   -5.2780   -2.8070   13.3710 C   0  0  0  0  0  0  0  0  0  0  0  0
   -6.6120   -3.2070   13.5220 C   0  0  0  0  0  0  0  0  0  0  0  0
   -7.6330   -2.4560   12.9380 C   0  0  0  0  0  0  0  0  0  0  0  0
   -7.3380   -1.3030   12.2130 C   0  0  0  0  0  0  0  0  0  0  0  0
   -6.0060   -0.9070   12.0640 C   0  0  0  0  0  0  0  0  0  0  0  0
   -9.3190   -2.9460   13.1560 S   0  0  0  0  0  0  0  0  0  0  0  0
   -9.3620   -4.3220   13.5900 O   0  0  0  0  0  0  0  0  0  0  0  0
  -10.1040   -2.4600   12.0460 O   0  0  0  0  0  0  0  0  0  0  0  0
   -9.7790   -2.0250   14.4820 N   0  0  0  0  0  0  0  0  0  0  0  0
   -1.3500    1.6190   12.4810 C   0  0  0  0  0  0  0  0  0  0  0  0
   -2.2140    2.6420   12.7150 F   0  0  0  0  0  0  0  0  0  0  0  0
   -0.4270    1.6390   13.4770 F   0  0  0  0  0  0  0  0  0  0  0  0
   -0.6840    1.9380   11.3350 F   0  0  0  0  0  0  0  0  0  0  0  0
   -1.8603   -8.0738   12.0273 H   0  0  0  0  0  0  0  0  0  0  0  0
   -2.7827   -7.9164   10.4940 H   0  0  0  0  0  0  0  0  0  0  0  0
   -0.9983   -7.7098   10.4940 H   0  0  0  0  0  0  0  0  0  0  0  0
   -1.0284   -6.1085   13.2071 H   0  0  0  0  0  0  0  0  0  0  0  0
   -1.2807   -3.6634   13.6111 H   0  0  0  0  0  0  0  0  0  0  0  0
   -3.4099   -3.2677    9.8672 H   0  0  0  0  0  0  0  0  0  0  0  0
   -3.1545   -5.7129    9.4665 H   0  0  0  0  0  0  0  0  0  0  0  0
   -0.4874   -1.0535   11.4604 H   0  0  0  0  0  0  0  0  0  0  0  0
   -4.4735   -3.4085   13.8192 H   0  0  0  0  0  0  0  0  0  0  0  0
   -6.8542   -4.1112   14.0997 H   0  0  0  0  0  0  0  0  0  0  0  0
   -8.1468   -0.7095   11.7618 H   0  0  0  0  0  0  0  0  0  0  0  0
   -5.7702   -0.0059   11.4788 H   0  0  0  0  0  0  0  0  0  0  0  0
   -9.5303   -2.5229   15.3487 H   0  0  0  0  0  0  0  0  0  0  0  0
   -9.2921   -1.1177   14.4554 H   0  0  0  0  0  0  0  0  0  0  0  0
  1  2  1  0
  2  3  2  0
  3  4  1  0
  4  5  2  0
  5  6  1  0
  6  7  2  0
  5  8  1  0
  8  9  2  0
  9 10  1  0
 10 11  2  0
 11 12  1  0
 12 13  1  0
 13 14  2  0
 14 15  1  0
 15 16  2  0
 16 17  1  0
 17 18  2  0
 16 19  1  0
 19 20  2  0
 19 21  2  0
 19 22  1  0
 10 23  1  0
 23 24  1  0
 23 25  1  0
 23 26  1  0
  7  2  1  0
 12  8  1  0
 18 13  1  0
  1 27  1  0
  1 28  1  0
  1 29  1  0
  3 30  1  0
  4 31  1  0
  6 32  1  0
  7 33  1  0
  9 34  1  0
 14 35  1  0
 15 36  1  0
 17 37  1  0
 18 38  1  0
 22 39  1  0
 22 40  1  0
M  END
