
     RDKit          3D

 56 59  0  0  0  0  0  0  0  0999 V2000
 -116.6450   57.8940   28.2610 C   0  0  0  0  0  0  0  0  0  0  0  0
 -115.9070   57.7860   29.6070 C   0  0  2  0  0  0  0  0  0  0  0  0
 -115.1840   59.1160   29.9340 C   0  0  1  0  0  0  0  0  0  0  0  0
 -114.9310   59.3770   31.4340 C   0  0  1  0  0  0  0  0  0  0  0  0
 -114.3230   60.8060   31.6680 C   0  0  1  0  0  0  0  0  0  0  0  0
 -113.9850   60.9690   33.1810 C   0  0  1  0  0  0  0  0  0  0  0  0
 -112.8150   60.0150   33.4570 C   0  0  0  0  0  0  0  0  0  0  0  0
 -112.8510   59.2060   34.3890 O   0  0  0  0  0  0  0  0  0  0  0  0
 -111.6140   60.1030   32.5740 C   0  0  0  0  0  0  0  0  0  0  0  0
 -111.7610   60.6570   31.3500 C   0  0  0  0  0  0  0  0  0  0  0  0
 -113.0880   61.1330   30.7790 C   0  0  1  0  0  0  0  0  0  0  0  0
 -113.2710   60.5630   29.3450 C   0  0  0  0  0  0  0  0  0  0  0  0
 -113.0310   61.1940   28.3180 O   0  0  0  0  0  0  0  0  0  0  0  0
 -113.8390   59.1970   29.2930 C   0  0  0  0  0  0  0  0  0  0  0  0
 -113.1020   58.1430   28.9170 C   0  0  0  0  0  0  0  0  0  0  0  0
 -113.6140   56.7670   29.1450 C   0  0  0  0  0  0  0  0  0  0  0  0
 -114.9590   56.5980   29.5450 C   0  0  0  0  0  0  0  0  0  0  0  0
 -115.4600   55.3120   29.8190 C   0  0  0  0  0  0  0  0  0  0  0  0
 -114.6410   54.1930   29.6990 C   0  0  0  0  0  0  0  0  0  0  0  0
 -113.3180   54.3410   29.2950 C   0  0  0  0  0  0  0  0  0  0  0  0
 -112.8150   55.6140   29.0200 C   0  0  0  0  0  0  0  0  0  0  0  0
 -111.5060   55.7380   28.6220 O   0  0  0  0  0  0  0  0  0  0  0  0
 -111.8120   58.3030   28.4650 O   0  0  0  0  0  0  0  0  0  0  0  0
 -112.9840   62.5570   30.6390 O   0  0  0  0  0  0  0  0  0  0  0  0
 -110.6860   60.8800   30.4910 O   0  0  0  0  0  0  0  0  0  0  0  0
 -110.2730   59.6270   33.0170 C   0  0  0  0  0  0  0  0  0  0  0  0
 -109.5910   60.2540   33.8250 O   0  0  0  0  0  0  0  0  0  0  0  0
 -109.8200   58.4640   32.4820 N   0  0  0  0  0  0  0  0  0  0  0  0
 -113.6220   62.3300   33.6660 N   0  0  0  0  0  0  0  0  0  0  0  0
 -113.2430   62.3140   35.0870 C   0  0  0  0  0  0  0  0  0  0  0  0
 -114.7270   63.2820   33.4930 C   0  0  0  0  0  0  0  0  0  0  0  0
 -116.1650   59.3090   32.1500 O   0  0  0  0  0  0  0  0  0  0  0  0
 -117.7184   58.0511   28.4430 H   0  0  0  0  0  0  0  0  0  0  0  0
 -116.2420   58.7427   27.6889 H   0  0  0  0  0  0  0  0  0  0  0  0
 -116.5021   56.9654   27.6889 H   0  0  0  0  0  0  0  0  0  0  0  0
 -116.6186   57.6135   30.4279 H   0  0  0  0  0  0  0  0  0  0  0  0
 -115.8892   59.8647   29.5438 H   0  0  0  0  0  0  0  0  0  0  0  0
 -114.2242   58.6124   31.7887 H   0  0  0  0  0  0  0  0  0  0  0  0
 -115.0868   61.5356   31.3611 H   0  0  0  0  0  0  0  0  0  0  0  0
 -114.9134   60.7486   33.7282 H   0  0  0  0  0  0  0  0  0  0  0  0
 -116.5078   55.1900   30.1307 H   0  0  0  0  0  0  0  0  0  0  0  0
 -115.0394   53.1926   29.9234 H   0  0  0  0  0  0  0  0  0  0  0  0
 -112.6703   53.4578   29.1926 H   0  0  0  0  0  0  0  0  0  0  0  0
 -111.1319   56.6326   28.4227 H   0  0  0  0  0  0  0  0  0  0  0  0
 -111.2818   57.5130   28.1913 H   0  0  0  0  0  0  0  0  0  0  0  0
 -112.9534   62.9754   31.5357 H   0  0  0  0  0  0  0  0  0  0  0  0
 -110.8390   61.2887   29.6024 H   0  0  0  0  0  0  0  0  0  0  0  0
 -108.8988   58.0948   32.7575 H   0  0  0  0  0  0  0  0  0  0  0  0
 -110.3976   57.9511   31.8007 H   0  0  0  0  0  0  0  0  0  0  0  0
 -114.1496   62.3523   35.7087 H   0  0  0  0  0  0  0  0  0  0  0  0
 -112.6858   61.3915   35.3075 H   0  0  0  0  0  0  0  0  0  0  0  0
 -112.6101   63.1862   35.3075 H   0  0  0  0  0  0  0  0  0  0  0  0
 -115.0954   63.5994   34.4797 H   0  0  0  0  0  0  0  0  0  0  0  0
 -114.3704   64.1602   32.9349 H   0  0  0  0  0  0  0  0  0  0  0  0
 -115.5428   62.7994   32.9349 H   0  0  0  0  0  0  0  0  0  0  0  0
 -115.9829   59.3190   33.1231 H   0  0  0  0  0  0  0  0  0  0  0  0
  1  2  1  0
  2  3  1  0
  3  4  1  0
  4  5  1  0
  5  6  1  0
  6  7  1  0
  7  8  2  0
  7  9  1  0
  9 10  2  0
 10 11  1  0
 11 12  1  0
 12 13  2  0
 12 14  1  0
 14 15  2  0
 15 16  1  0
 16 17  2  0
 17 18  1  0
 18 19  2  0
 19 20  1  0
 20 21  2  0
 21 22  1  0
 15 23  1  0
 11 24  1  6
 10 25  1  0
  9 26  1  0
 26 27  2  0
 26 28  1  0
  6 29  1  0
 29 30  1  0
 29 31  1  0
  4 32  1  0
 17  2  1  0
 14  3  1  0
 11  5  1  0
 21 16  1  0
  1 33  1  0
  1 34  1  0
  1 35  1  0
  2 36  1  1
  3 37  1  6
  4 38  1  1
  5 39  1  6
  6 40  1  1
 18 41  1  0
 19 42  1  0
 20 43  1  0
 22 44  1  0
 23 45  1  0
 24 46  1  0
 25 47  1  0
 28 48  1  0
 28 49  1  0
 30 50  1  0
 30 51  1  0
 30 52  1  0
 31 53  1  0
 31 54  1  0
 31 55  1  0
 32 56  1  0
M  END
