
     RDKit          3D

 34 36  0  0  0  0  0  0  0  0999 V2000
  -17.5780   67.8780   33.2470 C   0  0  0  0  0  0  0  0  0  0  0  0
  -18.6560   68.4280   32.5680 C   0  0  0  0  0  0  0  0  0  0  0  0
  -18.8240   69.7430   33.0960 C   0  0  0  0  0  0  0  0  0  0  0  0
  -17.8430   69.9540   34.0540 C   0  0  0  0  0  0  0  0  0  0  0  0
  -17.1040   68.8040   34.1400 N   0  0  0  0  0  0  0  0  0  0  0  0
  -17.7690   71.1610   34.7270 C   0  0  0  0  0  0  0  0  0  0  0  0
  -18.6780   72.1010   34.4310 N   0  0  0  0  0  0  0  0  0  0  0  0
  -19.5980   71.8180   33.4900 C   0  0  0  0  0  0  0  0  0  0  0  0
  -19.7430   70.6850   32.7880 N   0  0  0  0  0  0  0  0  0  0  0  0
  -16.8010   71.4590   35.6760 N   0  0  0  0  0  0  0  0  0  0  0  0
  -19.4500   67.7500   31.4960 C   0  0  1  0  0  0  0  0  0  0  0  0
  -20.9060   67.4140   31.8520 C   0  0  1  0  0  0  0  0  0  0  0  0
  -21.5600   67.3890   30.4740 C   0  0  1  0  0  0  0  0  0  0  0  0
  -20.8500   68.5210   29.7320 C   0  0  2  0  0  0  0  0  0  0  0  0
  -19.4720   68.6250   30.3040 N   0  0  0  0  0  0  0  0  0  0  0  0
  -21.5610   69.8700   29.9220 C   0  0  0  0  0  0  0  0  0  0  0  0
  -20.6050   70.9270   29.8450 O   0  0  0  0  0  0  0  0  0  0  0  0
  -21.2850   66.1320   29.8370 O   0  0  0  0  0  0  0  0  0  0  0  0
  -21.0510   66.1330   32.4760 O   0  0  0  0  0  0  0  0  0  0  0  0
  -17.1715   66.8674   33.0942 H   0  0  0  0  0  0  0  0  0  0  0  0
  -16.3106   68.6568   34.7801 H   0  0  0  0  0  0  0  0  0  0  0  0
  -20.3216   72.6165   33.2693 H   0  0  0  0  0  0  0  0  0  0  0  0
  -16.8017   72.3779   36.1414 H   0  0  0  0  0  0  0  0  0  0  0  0
  -16.0820   70.7613   35.9149 H   0  0  0  0  0  0  0  0  0  0  0  0
  -18.9459   66.7865   31.3303 H   0  0  0  0  0  0  0  0  0  0  0  0
  -21.3360   68.1261   32.5717 H   0  0  0  0  0  0  0  0  0  0  0  0
  -22.6532   67.5084   30.5000 H   0  0  0  0  0  0  0  0  0  0  0  0
  -20.8436   68.2965   28.6552 H   0  0  0  0  0  0  0  0  0  0  0  0
  -18.7751   68.3071   29.6154 H   0  0  0  0  0  0  0  0  0  0  0  0
  -22.3163   70.0006   29.1331 H   0  0  0  0  0  0  0  0  0  0  0  0
  -22.0515   69.8904   30.9064 H   0  0  0  0  0  0  0  0  0  0  0  0
  -20.3502   71.2087   30.7592 H   0  0  0  0  0  0  0  0  0  0  0  0
  -21.1333   65.4386   30.5271 H   0  0  0  0  0  0  0  0  0  0  0  0
  -21.0387   66.2419   33.4599 H   0  0  0  0  0  0  0  0  0  0  0  0
  1  2  2  0
  2  3  1  0
  3  4  2  0
  4  5  1  0
  4  6  1  0
  6  7  2  0
  7  8  1  0
  8  9  2  0
  6 10  1  0
  2 11  1  0
 11 12  1  0
 12 13  1  0
 13 14  1  0
 14 15  1  0
 14 16  1  0
 16 17  1  0
 13 18  1  0
 12 19  1  0
  5  1  1  0
  9  3  1  0
 15 11  1  0
  1 20  1  0
  5 21  1  0
  8 22  1  0
 10 23  1  0
 10 24  1  0
 11 25  1  6
 12 26  1  1
 13 27  1  1
 14 28  1  6
 15 29  1  0
 16 30  1  0
 16 31  1  0
 17 32  1  0
 18 33  1  0
 19 34  1  0
M  END
