
     RDKit          3D

 40 42  0  0  0  0  0  0  0  0999 V2000
   -5.9400   74.0670   22.4130 C   0  0  0  0  0  0  0  0  0  0  0  0
   -5.7980   74.9480   21.2080 C   0  0  0  0  0  0  0  0  0  0  0  0
   -4.5460   75.1380   20.6130 C   0  0  0  0  0  0  0  0  0  0  0  0
   -4.4070   75.9830   19.5080 C   0  0  0  0  0  0  0  0  0  0  0  0
   -5.5150   76.6690   18.9990 C   0  0  0  0  0  0  0  0  0  0  0  0
   -6.7690   76.4780   19.5910 C   0  0  0  0  0  0  0  0  0  0  0  0
   -6.9070   75.6320   20.6950 C   0  0  0  0  0  0  0  0  0  0  0  0
   -5.3770   77.5430   17.8380 C   0  0  0  0  0  0  0  0  0  0  0  0
   -4.9760   78.8660   17.8470 C   0  0  0  0  0  0  0  0  0  0  0  0
   -5.1600   79.3460   16.5350 C   0  0  0  0  0  0  0  0  0  0  0  0
   -5.6420   78.3770   15.7410 N   0  0  0  0  0  0  0  0  0  0  0  0
   -5.6960   77.2510   16.5110 N   0  0  0  0  0  0  0  0  0  0  0  0
   -6.0310   76.0100   15.8790 C   0  0  0  0  0  0  0  0  0  0  0  0
   -5.5130   74.7810   16.3110 C   0  0  0  0  0  0  0  0  0  0  0  0
   -5.8660   73.5930   15.6600 C   0  0  0  0  0  0  0  0  0  0  0  0
   -6.7250   73.6310   14.5600 C   0  0  0  0  0  0  0  0  0  0  0  0
   -7.2450   74.8440   14.1100 C   0  0  0  0  0  0  0  0  0  0  0  0
   -6.8900   76.0290   14.7620 C   0  0  0  0  0  0  0  0  0  0  0  0
   -7.1950   72.1270   13.7580 S   0  0  0  0  0  0  0  0  0  0  0  0
   -8.2780   72.3930   12.8420 O   0  0  0  0  0  0  0  0  0  0  0  0
   -6.0070   71.4070   13.3640 O   0  0  0  0  0  0  0  0  0  0  0  0
   -7.8680   71.2540   15.0240 N   0  0  0  0  0  0  0  0  0  0  0  0
   -4.9020   80.7460   16.0440 C   0  0  0  0  0  0  0  0  0  0  0  0
   -4.4260   81.5480   17.0380 F   0  0  0  0  0  0  0  0  0  0  0  0
   -3.9770   80.7860   15.0490 F   0  0  0  0  0  0  0  0  0  0  0  0
   -6.0240   81.3480   15.5710 F   0  0  0  0  0  0  0  0  0  0  0  0
   -5.8421   74.6744   23.3249 H   0  0  0  0  0  0  0  0  0  0  0  0
   -6.9277   73.5831   22.3991 H   0  0  0  0  0  0  0  0  0  0  0  0
   -5.1543   73.2972   22.3991 H   0  0  0  0  0  0  0  0  0  0  0  0
   -3.6647   74.6187   21.0176 H   0  0  0  0  0  0  0  0  0  0  0  0
   -3.4213   76.1092   19.0363 H   0  0  0  0  0  0  0  0  0  0  0  0
   -7.6503   76.9964   19.1853 H   0  0  0  0  0  0  0  0  0  0  0  0
   -7.8935   75.5026   21.1641 H   0  0  0  0  0  0  0  0  0  0  0  0
   -4.5899   79.4318   18.7077 H   0  0  0  0  0  0  0  0  0  0  0  0
   -4.8240   74.7499   17.1679 H   0  0  0  0  0  0  0  0  0  0  0  0
   -5.4672   72.6311   16.0146 H   0  0  0  0  0  0  0  0  0  0  0  0
   -7.9291   74.8685   13.2489 H   0  0  0  0  0  0  0  0  0  0  0  0
   -7.2864   76.9885   14.3983 H   0  0  0  0  0  0  0  0  0  0  0  0
   -7.5585   71.6555   15.9206 H   0  0  0  0  0  0  0  0  0  0  0  0
   -8.8953   71.2989   14.9641 H   0  0  0  0  0  0  0  0  0  0  0  0
  1  2  1  0
  2  3  2  0
  3  4  1  0
  4  5  2  0
  5  6  1  0
  6  7  2  0
  5  8  1  0
  8  9  2  0
  9 10  1  0
 10 11  2  0
 11 12  1  0
 12 13  1  0
 13 14  2  0
 14 15  1  0
 15 16  2  0
 16 17  1  0
 17 18  2  0
 16 19  1  0
 19 20  2  0
 19 21  2  0
 19 22  1  0
 10 23  1  0
 23 24  1  0
 23 25  1  0
 23 26  1  0
  7  2  1  0
 12  8  1  0
 18 13  1  0
  1 27  1  0
  1 28  1  0
  1 29  1  0
  3 30  1  0
  4 31  1  0
  6 32  1  0
  7 33  1  0
  9 34  1  0
 14 35  1  0
 15 36  1  0
 17 37  1  0
 18 38  1  0
 22 39  1  0
 22 40  1  0
M  END
