
     RDKit          3D

 49 52  0  0  0  0  0  0  0  0999 V2000
  -23.4650   67.8530   22.2170 C   0  0  0  0  0  0  0  0  0  0  0  0
  -22.4750   68.6280   21.4820 N   0  0  0  0  0  0  0  0  0  0  0  0
  -22.3910   70.0130   21.9510 C   0  0  0  0  0  0  0  0  0  0  0  0
  -21.2760   70.8180   21.2310 C   0  0  0  0  0  0  0  0  0  0  0  0
  -20.9340   70.3590   19.8660 N   0  0  0  0  0  0  0  0  0  0  0  0
  -22.1140   69.7690   19.2200 C   0  0  0  0  0  0  0  0  0  0  0  0
  -22.7220   68.5870   20.0290 C   0  0  0  0  0  0  0  0  0  0  0  0
  -20.2970   71.4300   19.0950 C   0  0  0  0  0  0  0  0  0  0  0  0
  -20.5310   71.3060   17.5840 C   0  0  0  0  0  0  0  0  0  0  0  0
  -19.5240   72.1720   16.8150 C   0  0  0  0  0  0  0  0  0  0  0  0
  -19.7170   72.0750   15.3480 N   0  0  0  0  0  0  0  0  0  0  0  0
  -20.4590   73.1190   14.7220 C   0  0  0  0  0  0  0  0  0  0  0  0
  -21.2880   74.0010   15.4530 C   0  0  0  0  0  0  0  0  0  0  0  0
  -22.0310   75.0210   14.8450 C   0  0  0  0  0  0  0  0  0  0  0  0
  -21.9730   75.1950   13.4740 C   0  0  0  0  0  0  0  0  0  0  0  0
  -21.1760   74.3440   12.7180 C   0  0  0  0  0  0  0  0  0  0  0  0
  -20.4290   73.3130   13.3250 C   0  0  0  0  0  0  0  0  0  0  0  0
  -19.4420   72.3370   12.2170 S   0  0  0  0  0  0  0  0  0  0  0  0
  -18.8890   71.0150   13.2690 C   0  0  0  0  0  0  0  0  0  0  0  0
  -19.0490   71.0140   14.6700 C   0  0  0  0  0  0  0  0  0  0  0  0
  -18.5310   69.8900   15.3550 C   0  0  0  0  0  0  0  0  0  0  0  0
  -17.8860   68.8430   14.6900 C   0  0  0  0  0  0  0  0  0  0  0  0
  -17.7330   68.8710   13.3140 C   0  0  0  0  0  0  0  0  0  0  0  0
  -18.2360   69.9560   12.6070 C   0  0  0  0  0  0  0  0  0  0  0  0
  -17.2770   67.5060   15.5870 Cl  0  0  0  0  0  0  0  0  0  0  0  0
  -23.3021   67.9805   23.2974 H   0  0  0  0  0  0  0  0  0  0  0  0
  -24.4740   68.2038   21.9544 H   0  0  0  0  0  0  0  0  0  0  0  0
  -23.3667   66.7893   21.9544 H   0  0  0  0  0  0  0  0  0  0  0  0
  -23.3568   70.5066   21.7678 H   0  0  0  0  0  0  0  0  0  0  0  0
  -22.1462   69.9885   23.0231 H   0  0  0  0  0  0  0  0  0  0  0  0
  -21.6052   71.8654   21.1630 H   0  0  0  0  0  0  0  0  0  0  0  0
  -20.3663   70.6752   21.8326 H   0  0  0  0  0  0  0  0  0  0  0  0
  -22.8809   70.5499   19.1102 H   0  0  0  0  0  0  0  0  0  0  0  0
  -21.7918   69.3706   18.2466 H   0  0  0  0  0  0  0  0  0  0  0  0
  -23.8102   68.5890   19.8686 H   0  0  0  0  0  0  0  0  0  0  0  0
  -22.2252   67.6774   19.6605 H   0  0  0  0  0  0  0  0  0  0  0  0
  -20.7032   72.3944   19.4340 H   0  0  0  0  0  0  0  0  0  0  0  0
  -19.2128   71.3563   19.2657 H   0  0  0  0  0  0  0  0  0  0  0  0
  -20.4095   70.2549   17.2833 H   0  0  0  0  0  0  0  0  0  0  0  0
  -21.5495   71.6500   17.3507 H   0  0  0  0  0  0  0  0  0  0  0  0
  -19.6501   73.2209   17.1216 H   0  0  0  0  0  0  0  0  0  0  0  0
  -18.5128   71.8086   17.0502 H   0  0  0  0  0  0  0  0  0  0  0  0
  -21.3521   73.8811   16.5446 H   0  0  0  0  0  0  0  0  0  0  0  0
  -22.6603   75.6833   15.4576 H   0  0  0  0  0  0  0  0  0  0  0  0
  -22.5499   75.9961   12.9888 H   0  0  0  0  0  0  0  0  0  0  0  0
  -21.1268   74.4767   11.6271 H   0  0  0  0  0  0  0  0  0  0  0  0
  -18.6394   69.8380   16.4484 H   0  0  0  0  0  0  0  0  0  0  0  0
  -17.2226   68.0493   12.7904 H   0  0  0  0  0  0  0  0  0  0  0  0
  -18.1228   69.9890   11.5133 H   0  0  0  0  0  0  0  0  0  0  0  0
  1  2  1  0
  2  3  1  0
  3  4  1  0
  4  5  1  0
  5  6  1  0
  6  7  1  0
  5  8  1  0
  8  9  1  0
  9 10  1  0
 10 11  1  0
 11 12  1  0
 12 13  2  0
 13 14  1  0
 14 15  2  0
 15 16  1  0
 16 17  2  0
 17 18  1  0
 18 19  1  0
 19 20  2  0
 20 21  1  0
 21 22  2  0
 22 23  1  0
 23 24  2  0
 22 25  1  0
  7  2  1  0
 20 11  1  0
 17 12  1  0
 24 19  1  0
  1 26  1  0
  1 27  1  0
  1 28  1  0
  3 29  1  0
  3 30  1  0
  4 31  1  0
  4 32  1  0
  6 33  1  0
  6 34  1  0
  7 35  1  0
  7 36  1  0
  8 37  1  0
  8 38  1  0
  9 39  1  0
  9 40  1  0
 10 41  1  0
 10 42  1  0
 13 43  1  0
 14 44  1  0
 15 45  1  0
 16 46  1  0
 21 47  1  0
 23 48  1  0
 24 49  1  0
M  END
