
     RDKit          3D

 85 88  0  0  0  0  0  0  0  0999 V2000
 -126.4160   59.4260   30.5660 C   0  0  0  0  0  0  0  0  0  0  0  0
 -125.9630   60.8510   30.4110 C   0  0  0  0  0  0  0  0  0  0  0  0
 -126.5140   61.8880   31.1960 C   0  0  0  0  0  0  0  0  0  0  0  0
 -126.1540   63.2280   30.9850 C   0  0  0  0  0  0  0  0  0  0  0  0
 -125.2050   63.5530   30.0210 C   0  0  0  0  0  0  0  0  0  0  0  0
 -124.6100   62.5390   29.2760 C   0  0  0  0  0  0  0  0  0  0  0  0
 -124.9790   61.2080   29.4770 C   0  0  0  0  0  0  0  0  0  0  0  0
 -124.3180   60.2940   28.7040 O   0  0  0  0  0  0  0  0  0  0  0  0
 -127.4890   61.6360   32.2840 C   0  0  0  0  0  0  0  0  0  0  0  0
 -128.6590   61.3780   32.0260 O   0  0  0  0  0  0  0  0  0  0  0  0
 -126.9910   61.7840   33.5590 N   0  0  0  0  0  0  0  0  0  0  0  0
 -127.8730   61.7340   34.7390 C   0  0  1  0  0  0  0  0  0  0  0  0
 -127.1150   61.1190   35.9350 C   0  0  0  0  0  0  0  0  0  0  0  0
 -126.5940   59.3740   35.6600 S   0  0  0  0  0  0  0  0  0  0  0  0
 -127.0260   58.6790   37.2410 C   0  0  0  0  0  0  0  0  0  0  0  0
 -126.5860   57.3980   37.5880 C   0  0  0  0  0  0  0  0  0  0  0  0
 -126.9320   56.8470   38.8230 C   0  0  0  0  0  0  0  0  0  0  0  0
 -127.7200   57.5720   39.7140 C   0  0  0  0  0  0  0  0  0  0  0  0
 -128.1680   58.8470   39.3710 C   0  0  0  0  0  0  0  0  0  0  0  0
 -127.8280   59.3960   38.1330 C   0  0  0  0  0  0  0  0  0  0  0  0
 -128.4220   63.1600   35.0260 C   0  0  1  0  0  0  0  0  0  0  0  0
 -127.5120   64.0670   35.8930 C   0  0  0  0  0  0  0  0  0  0  0  0
 -128.2040   64.7410   37.0040 N   0  0  0  0  0  0  0  0  0  0  0  0
 -128.9580   65.9300   36.5820 C   0  0  0  0  0  0  0  0  0  0  0  0
 -128.1910   67.2470   36.7740 C   0  0  1  0  0  0  0  0  0  0  0  0
 -129.0020   68.4280   36.2130 C   0  0  0  0  0  0  0  0  0  0  0  0
 -128.4460   69.7580   36.7040 C   0  0  0  0  0  0  0  0  0  0  0  0
 -128.5200   69.8820   38.2260 C   0  0  0  0  0  0  0  0  0  0  0  0
 -128.6060   68.5380   38.9490 C   0  0  0  0  0  0  0  0  0  0  0  0
 -127.7770   67.4540   38.2510 C   0  0  1  0  0  0  0  0  0  0  0  0
 -127.8210   66.1400   39.0450 C   0  0  0  0  0  0  0  0  0  0  0  0
 -127.3290   64.9710   38.1800 C   0  0  1  0  0  0  0  0  0  0  0  0
 -127.2600   63.6840   39.0390 C   0  0  0  0  0  0  0  0  0  0  0  0
 -128.0870   62.7780   38.9530 O   0  0  0  0  0  0  0  0  0  0  0  0
 -126.1740   63.6430   39.8940 N   0  0  0  0  0  0  0  0  0  0  0  0
 -125.8360   62.5070   40.7670 C   0  0  0  0  0  0  0  0  0  0  0  0
 -127.0520   62.0630   41.5950 C   0  0  0  0  0  0  0  0  0  0  0  0
 -124.7350   62.9680   41.7400 C   0  0  0  0  0  0  0  0  0  0  0  0
 -125.2960   61.3270   39.9420 C   0  0  0  0  0  0  0  0  0  0  0  0
 -128.8040   63.8190   33.8120 O   0  0  0  0  0  0  0  0  0  0  0  0
 -126.4941   59.1803   31.6354 H   0  0  0  0  0  0  0  0  0  0  0  0
 -127.3986   59.2996   30.0880 H   0  0  0  0  0  0  0  0  0  0  0  0
 -125.6868   58.7554   30.0880 H   0  0  0  0  0  0  0  0  0  0  0  0
 -126.6232   64.0230   31.5831 H   0  0  0  0  0  0  0  0  0  0  0  0
 -124.9270   64.6033   29.8489 H   0  0  0  0  0  0  0  0  0  0  0  0
 -123.8454   62.7877   28.5253 H   0  0  0  0  0  0  0  0  0  0  0  0
 -124.5259   59.3299   28.7905 H   0  0  0  0  0  0  0  0  0  0  0  0
 -125.9804   61.9329   33.6912 H   0  0  0  0  0  0  0  0  0  0  0  0
 -128.7399   61.0832   34.5520 H   0  0  0  0  0  0  0  0  0  0  0  0
 -126.2164   61.7242   36.1255 H   0  0  0  0  0  0  0  0  0  0  0  0
 -127.8077   61.1177   36.7895 H   0  0  0  0  0  0  0  0  0  0  0  0
 -125.9652   56.8226   36.8855 H   0  0  0  0  0  0  0  0  0  0  0  0
 -126.5822   55.8396   39.0928 H   0  0  0  0  0  0  0  0  0  0  0  0
 -127.9889   57.1384   40.6885 H   0  0  0  0  0  0  0  0  0  0  0  0
 -128.7889   59.4201   40.0753 H   0  0  0  0  0  0  0  0  0  0  0  0
 -128.1929   60.3968   37.8587 H   0  0  0  0  0  0  0  0  0  0  0  0
 -129.3120   62.9912   35.6500 H   0  0  0  0  0  0  0  0  0  0  0  0
 -126.7088   63.4451   36.3150 H   0  0  0  0  0  0  0  0  0  0  0  0
 -127.1374   64.8606   35.2297 H   0  0  0  0  0  0  0  0  0  0  0  0
 -129.2051   65.8242   35.5153 H   0  0  0  0  0  0  0  0  0  0  0  0
 -129.8547   65.9844   37.2168 H   0  0  0  0  0  0  0  0  0  0  0  0
 -127.2540   67.1927   36.2004 H   0  0  0  0  0  0  0  0  0  0  0  0
 -128.9581   68.4041   35.1141 H   0  0  0  0  0  0  0  0  0  0  0  0
 -130.0414   68.3343   36.5608 H   0  0  0  0  0  0  0  0  0  0  0  0
 -127.3946   69.8406   36.3915 H   0  0  0  0  0  0  0  0  0  0  0  0
 -129.0549   70.5632   36.2672 H   0  0  0  0  0  0  0  0  0  0  0  0
 -127.6191   70.4074   38.5757 H   0  0  0  0  0  0  0  0  0  0  0  0
 -129.4438   70.4318   38.4590 H   0  0  0  0  0  0  0  0  0  0  0  0
 -128.2331   68.6633   39.9763 H   0  0  0  0  0  0  0  0  0  0  0  0
 -129.6580   68.2166   38.9428 H   0  0  0  0  0  0  0  0  0  0  0  0
 -126.7348   67.8052   38.2285 H   0  0  0  0  0  0  0  0  0  0  0  0
 -127.1757   66.2310   39.9312 H   0  0  0  0  0  0  0  0  0  0  0  0
 -128.8595   65.9438   39.3500 H   0  0  0  0  0  0  0  0  0  0  0  0
 -126.3284   65.2305   37.8038 H   0  0  0  0  0  0  0  0  0  0  0  0
 -125.5568   64.4671   39.9220 H   0  0  0  0  0  0  0  0  0  0  0  0
 -126.8172   62.1487   42.6662 H   0  0  0  0  0  0  0  0  0  0  0  0
 -127.9127   62.7049   41.3557 H   0  0  0  0  0  0  0  0  0  0  0  0
 -127.2966   61.0176   41.3557 H   0  0  0  0  0  0  0  0  0  0  0  0
 -125.0773   62.8247   42.7755 H   0  0  0  0  0  0  0  0  0  0  0  0
 -123.8238   62.3759   41.5698 H   0  0  0  0  0  0  0  0  0  0  0  0
 -124.5175   64.0328   41.5698 H   0  0  0  0  0  0  0  0  0  0  0  0
 -124.9357   60.5397   40.6205 H   0  0  0  0  0  0  0  0  0  0  0  0
 -126.0997   60.9249   39.3077 H   0  0  0  0  0  0  0  0  0  0  0  0
 -124.4663   61.6723   39.3077 H   0  0  0  0  0  0  0  0  0  0  0  0
 -129.2885   64.6548   34.0285 H   0  0  0  0  0  0  0  0  0  0  0  0
  1  2  1  0
  2  3  2  0
  3  4  1  0
  4  5  2  0
  5  6  1  0
  6  7  2  0
  7  8  1  0
  3  9  1  0
  9 10  2  0
  9 11  1  0
 11 12  1  0
 12 13  1  0
 13 14  1  0
 14 15  1  0
 15 16  2  0
 16 17  1  0
 17 18  2  0
 18 19  1  0
 19 20  2  0
 12 21  1  0
 21 22  1  0
 22 23  1  0
 23 24  1  0
 24 25  1  0
 25 26  1  0
 26 27  1  0
 27 28  1  0
 28 29  1  0
 29 30  1  0
 30 31  1  0
 31 32  1  0
 32 33  1  0
 33 34  2  0
 33 35  1  0
 35 36  1  0
 36 37  1  0
 36 38  1  0
 36 39  1  0
 21 40  1  0
  7  2  1  0
 20 15  1  0
 32 23  1  0
 30 25  1  0
  1 41  1  0
  1 42  1  0
  1 43  1  0
  4 44  1  0
  5 45  1  0
  6 46  1  0
  8 47  1  0
 11 48  1  0
 12 49  1  6
 13 50  1  0
 13 51  1  0
 16 52  1  0
 17 53  1  0
 18 54  1  0
 19 55  1  0
 20 56  1  0
 21 57  1  1
 22 58  1  0
 22 59  1  0
 24 60  1  0
 24 61  1  0
 25 62  1  6
 26 63  1  0
 26 64  1  0
 27 65  1  0
 27 66  1  0
 28 67  1  0
 28 68  1  0
 29 69  1  0
 29 70  1  0
 30 71  1  6
 31 72  1  0
 31 73  1  0
 32 74  1  6
 35 75  1  0
 37 76  1  0
 37 77  1  0
 37 78  1  0
 38 79  1  0
 38 80  1  0
 38 81  1  0
 39 82  1  0
 39 83  1  0
 39 84  1  0
 40 85  1  0
M  END
