
     RDKit          3D

 32 34  0  0  0  0  0  0  0  0999 V2000
  -18.6390   72.2870   16.6880 C   0  0  0  0  0  0  0  0  0  0  0  0
  -18.9450   73.1550   17.6320 N   0  0  0  0  0  0  0  0  0  0  0  0
  -20.0280   72.6020   18.2820 C   0  0  0  0  0  0  0  0  0  0  0  0
  -20.8150   73.0350   19.3600 C   0  0  0  0  0  0  0  0  0  0  0  0
  -21.8540   72.2680   19.7530 N   0  0  0  0  0  0  0  0  0  0  0  0
  -22.0740   71.1010   19.1080 C   0  0  0  0  0  0  0  0  0  0  0  0
  -21.3810   70.5780   18.0720 N   0  0  0  0  0  0  0  0  0  0  0  0
  -20.3740   71.3880   17.7130 C   0  0  0  0  0  0  0  0  0  0  0  0
  -19.4670   71.1980   16.7070 N   0  0  0  0  0  0  0  0  0  0  0  0
  -19.4380   70.0450   15.8380 C   0  0  1  0  0  0  0  0  0  0  0  0
  -20.2130   70.2010   14.5170 C   0  0  2  0  0  0  0  0  0  0  0  0
  -19.4170   69.2820   13.6020 C   0  0  1  0  0  0  0  0  0  0  0  0
  -17.9890   69.5680   14.0680 C   0  0  1  0  0  0  0  0  0  0  0  0
  -18.0660   69.6910   15.5110 O   0  0  0  0  0  0  0  0  0  0  0  0
  -16.9640   68.4980   13.7080 C   0  0  0  0  0  0  0  0  0  0  0  0
  -16.9000   67.5270   14.7520 O   0  0  0  0  0  0  0  0  0  0  0  0
  -19.8100   67.9240   13.7990 O   0  0  0  0  0  0  0  0  0  0  0  0
  -20.1490   71.5360   14.0020 O   0  0  0  0  0  0  0  0  0  0  0  0
  -23.1170   70.3740   19.5410 F   0  0  0  0  0  0  0  0  0  0  0  0
  -20.5850   74.2280   20.0330 N   0  0  0  0  0  0  0  0  0  0  0  0
  -17.8161   72.4222   15.9707 H   0  0  0  0  0  0  0  0  0  0  0  0
  -19.9425   69.2567   16.4160 H   0  0  0  0  0  0  0  0  0  0  0  0
  -21.2844   69.9742   14.6198 H   0  0  0  0  0  0  0  0  0  0  0  0
  -19.5569   69.4477   12.5236 H   0  0  0  0  0  0  0  0  0  0  0  0
  -17.6341   70.4745   13.5559 H   0  0  0  0  0  0  0  0  0  0  0  0
  -17.2609   68.0075   12.7693 H   0  0  0  0  0  0  0  0  0  0  0  0
  -15.9762   68.9654   13.5823 H   0  0  0  0  0  0  0  0  0  0  0  0
  -16.9301   67.9838   15.6298 H   0  0  0  0  0  0  0  0  0  0  0  0
  -19.8650   67.7338   14.7690 H   0  0  0  0  0  0  0  0  0  0  0  0
  -20.1182   72.1788   14.7543 H   0  0  0  0  0  0  0  0  0  0  0  0
  -21.1920   74.5012   20.8190 H   0  0  0  0  0  0  0  0  0  0  0  0
  -19.8074   74.8395   19.7461 H   0  0  0  0  0  0  0  0  0  0  0  0
  1  2  2  0
  2  3  1  0
  3  4  2  0
  4  5  1  0
  5  6  2  0
  6  7  1  0
  7  8  2  0
  8  9  1  0
  9 10  1  0
 10 11  1  0
 11 12  1  0
 12 13  1  0
 13 14  1  0
 13 15  1  0
 15 16  1  0
 12 17  1  0
 11 18  1  0
  6 19  1  0
  4 20  1  0
  9  1  1  0
  8  3  1  0
 14 10  1  0
  1 21  1  0
 10 22  1  1
 11 23  1  1
 12 24  1  6
 13 25  1  1
 15 26  1  0
 15 27  1  0
 16 28  1  0
 17 29  1  0
 18 30  1  0
 20 31  1  0
 20 32  1  0
M  END
