
     RDKit          3D

 56 58  0  0  0  0  0  0  0  0999 V2000
  -12.7810    6.3670   18.1020 C   0  0  0  0  0  0  0  0  0  0  0  0
  -12.7890    7.7230   18.7970 C   0  0  0  0  0  0  0  0  0  0  0  0
  -12.0480    7.7430   20.0700 N   0  0  0  0  0  0  0  0  0  0  0  0
  -12.8490    8.2060   21.2120 C   0  0  0  0  0  0  0  0  0  0  0  0
  -14.3110    8.3730   20.8140 C   0  0  0  0  0  0  0  0  0  0  0  0
  -11.4130    6.4330   20.3290 C   0  0  0  0  0  0  0  0  0  0  0  0
  -10.0130    6.4510   20.9790 C   0  0  0  0  0  0  0  0  0  0  0  0
   -8.9520    6.3160   20.0000 N   0  0  0  0  0  0  0  0  0  0  0  0
   -7.6800    5.9370   20.3700 C   0  0  0  0  0  0  0  0  0  0  0  0
   -7.3630    5.7510   21.5420 O   0  0  0  0  0  0  0  0  0  0  0  0
   -6.7630    5.7010   19.2480 C   0  0  0  0  0  0  0  0  0  0  0  0
   -6.0390    6.7080   18.6220 C   0  0  0  0  0  0  0  0  0  0  0  0
   -5.2870    6.1400   17.6270 N   0  0  0  0  0  0  0  0  0  0  0  0
   -5.5120    4.7900   17.5760 C   0  0  0  0  0  0  0  0  0  0  0  0
   -6.4370    4.4720   18.5590 C   0  0  0  0  0  0  0  0  0  0  0  0
   -7.0080    3.1190   18.8190 C   0  0  0  0  0  0  0  0  0  0  0  0
   -4.7930    4.0510   16.6090 C   0  0  0  0  0  0  0  0  0  0  0  0
   -3.6270    3.4350   16.8510 C   0  0  0  0  0  0  0  0  0  0  0  0
   -2.8660    2.6700   15.8520 C   0  0  0  0  0  0  0  0  0  0  0  0
   -1.7300    2.1850   16.5120 C   0  0  0  0  0  0  0  0  0  0  0  0
   -0.7720    1.4150   15.8820 C   0  0  0  0  0  0  0  0  0  0  0  0
   -0.9730    1.1260   14.5310 C   0  0  0  0  0  0  0  0  0  0  0  0
   -2.1090    1.6110   13.8650 C   0  0  0  0  0  0  0  0  0  0  0  0
   -3.0690    2.3880   14.5130 C   0  0  0  0  0  0  0  0  0  0  0  0
   -2.2760    1.3180   12.5680 F   0  0  0  0  0  0  0  0  0  0  0  0
   -1.7300    2.5900   17.8410 N   0  0  0  0  0  0  0  0  0  0  0  0
   -2.8480    3.3550   18.1450 C   0  0  0  0  0  0  0  0  0  0  0  0
   -3.1070    3.8330   19.2310 O   0  0  0  0  0  0  0  0  0  0  0  0
   -5.9980    8.1730   18.8800 C   0  0  0  0  0  0  0  0  0  0  0  0
  -12.7763    5.5677   18.8577 H   0  0  0  0  0  0  0  0  0  0  0  0
  -13.6786    6.2719   17.4733 H   0  0  0  0  0  0  0  0  0  0  0  0
  -11.8823    6.2825   17.4733 H   0  0  0  0  0  0  0  0  0  0  0  0
  -12.3357    8.4623   18.1202 H   0  0  0  0  0  0  0  0  0  0  0  0
  -13.8378    7.9558   19.0331 H   0  0  0  0  0  0  0  0  0  0  0  0
  -12.7783    7.4684   22.0250 H   0  0  0  0  0  0  0  0  0  0  0  0
  -12.4601    9.1798   21.5444 H   0  0  0  0  0  0  0  0  0  0  0  0
  -14.9317    8.4439   21.7194 H   0  0  0  0  0  0  0  0  0  0  0  0
  -14.4262    9.2901   20.2177 H   0  0  0  0  0  0  0  0  0  0  0  0
  -14.6301    7.5055   20.2177 H   0  0  0  0  0  0  0  0  0  0  0  0
  -12.0808    5.8659   20.9942 H   0  0  0  0  0  0  0  0  0  0  0  0
  -11.2616    5.9866   19.3351 H   0  0  0  0  0  0  0  0  0  0  0  0
   -9.8828    7.4038   21.5131 H   0  0  0  0  0  0  0  0  0  0  0  0
   -9.9490    5.5944   21.6661 H   0  0  0  0  0  0  0  0  0  0  0  0
   -9.1532    6.5072   19.0081 H   0  0  0  0  0  0  0  0  0  0  0  0
   -4.6451    6.6542   17.0069 H   0  0  0  0  0  0  0  0  0  0  0  0
   -7.0781    2.9529   19.9041 H   0  0  0  0  0  0  0  0  0  0  0  0
   -8.0110    3.0523   18.3723 H   0  0  0  0  0  0  0  0  0  0  0  0
   -6.3561    2.3539   18.3723 H   0  0  0  0  0  0  0  0  0  0  0  0
   -5.2159    3.9768   15.5963 H   0  0  0  0  0  0  0  0  0  0  0  0
    0.1121    1.0450   16.4219 H   0  0  0  0  0  0  0  0  0  0  0  0
   -0.2378    0.5155   13.9863 H   0  0  0  0  0  0  0  0  0  0  0  0
   -3.9548    2.7627   13.9791 H   0  0  0  0  0  0  0  0  0  0  0  0
   -0.9911    2.3519   18.5179 H   0  0  0  0  0  0  0  0  0  0  0  0
   -5.9929    8.3542   19.9650 H   0  0  0  0  0  0  0  0  0  0  0  0
   -5.0876    8.5987   18.4329 H   0  0  0  0  0  0  0  0  0  0  0  0
   -6.8832    8.6490   18.4329 H   0  0  0  0  0  0  0  0  0  0  0  0
  1  2  1  0
  2  3  1  0
  3  4  1  0
  4  5  1  0
  3  6  1  0
  6  7  1  0
  7  8  1  0
  8  9  1  0
  9 10  2  0
  9 11  1  0
 11 12  2  0
 12 13  1  0
 13 14  1  0
 14 15  2  0
 15 16  1  0
 14 17  1  0
 17 18  2  0
 18 19  1  0
 19 20  1  0
 20 21  2  0
 21 22  1  0
 22 23  2  0
 23 24  1  0
 23 25  1  0
 20 26  1  0
 26 27  1  0
 27 28  2  0
 12 29  1  0
 15 11  1  0
 27 18  1  0
 24 19  2  0
  1 30  1  0
  1 31  1  0
  1 32  1  0
  2 33  1  0
  2 34  1  0
  4 35  1  0
  4 36  1  0
  5 37  1  0
  5 38  1  0
  5 39  1  0
  6 40  1  0
  6 41  1  0
  7 42  1  0
  7 43  1  0
  8 44  1  0
 13 45  1  0
 16 46  1  0
 16 47  1  0
 16 48  1  0
 17 49  1  0
 21 50  1  0
 22 51  1  0
 24 52  1  0
 26 53  1  0
 29 54  1  0
 29 55  1  0
 29 56  1  0
M  END
