
     RDKit          3D

 49 50  0  0  0  0  0  0  0  0999 V2000
  -20.7450   67.0860   32.5800 C   0  0  0  0  0  0  0  0  0  0  0  0
  -20.3890   67.2910   33.9180 C   0  0  0  0  0  0  0  0  0  0  0  0
  -19.1740   67.9000   34.2360 C   0  0  0  0  0  0  0  0  0  0  0  0
  -18.3210   68.3070   33.2060 C   0  0  0  0  0  0  0  0  0  0  0  0
  -18.6710   68.1070   31.8690 C   0  0  0  0  0  0  0  0  0  0  0  0
  -19.8830   67.4910   31.5550 C   0  0  0  0  0  0  0  0  0  0  0  0
  -20.2580   67.2880   30.1290 C   0  0  0  0  0  0  0  0  0  0  0  0
  -19.5350   67.7210   29.1460 N   0  0  0  0  0  0  0  0  0  0  0  0
  -21.3990   66.6140   29.8100 N   0  0  0  0  0  0  0  0  0  0  0  0
  -18.7080   68.1580   35.4950 O   0  0  0  0  0  0  0  0  0  0  0  0
  -17.3710   68.6410   35.6110 C   0  0  0  0  0  0  0  0  0  0  0  0
  -17.3850   69.9500   36.4030 C   0  0  0  0  0  0  0  0  0  0  0  0
  -17.6410   71.1660   35.5070 C   0  0  0  0  0  0  0  0  0  0  0  0
  -19.1110   71.5890   35.4650 C   0  0  0  0  0  0  0  0  0  0  0  0
  -19.6800   71.7070   34.0530 C   0  0  0  0  0  0  0  0  0  0  0  0
  -20.9160   70.9930   34.0220 O   0  0  0  0  0  0  0  0  0  0  0  0
  -21.4510   70.7190   32.7940 C   0  0  0  0  0  0  0  0  0  0  0  0
  -22.6630   70.0700   32.5520 C   0  0  0  0  0  0  0  0  0  0  0  0
  -23.0950   69.8530   31.2370 C   0  0  0  0  0  0  0  0  0  0  0  0
  -22.3150   70.2860   30.1610 C   0  0  0  0  0  0  0  0  0  0  0  0
  -21.0990   70.9300   30.3990 C   0  0  0  0  0  0  0  0  0  0  0  0
  -20.6740   71.1460   31.7130 C   0  0  0  0  0  0  0  0  0  0  0  0
  -22.7590   70.0480   28.7610 C   0  0  0  0  0  0  0  0  0  0  0  0
  -22.4330   68.9880   28.0940 N   0  0  0  0  0  0  0  0  0  0  0  0
  -23.5360   70.9670   28.1240 N   0  0  0  0  0  0  0  0  0  0  0  0
  -21.7036   66.6059   32.3340 H   0  0  0  0  0  0  0  0  0  0  0  0
  -21.0689   66.9712   34.7214 H   0  0  0  0  0  0  0  0  0  0  0  0
  -17.3637   68.7901   33.4513 H   0  0  0  0  0  0  0  0  0  0  0  0
  -17.9937   68.4339   31.0663 H   0  0  0  0  0  0  0  0  0  0  0  0
  -19.8351   67.5566   28.1745 H   0  0  0  0  0  0  0  0  0  0  0  0
  -21.6560   66.4750   28.8223 H   0  0  0  0  0  0  0  0  0  0  0  0
  -22.0042   66.2437   30.5566 H   0  0  0  0  0  0  0  0  0  0  0  0
  -16.7540   67.8976   36.1369 H   0  0  0  0  0  0  0  0  0  0  0  0
  -16.9490   68.8149   34.6102 H   0  0  0  0  0  0  0  0  0  0  0  0
  -18.1790   69.8961   37.1623 H   0  0  0  0  0  0  0  0  0  0  0  0
  -16.3953   70.0747   36.8667 H   0  0  0  0  0  0  0  0  0  0  0  0
  -17.0456   72.0100   35.8855 H   0  0  0  0  0  0  0  0  0  0  0  0
  -17.3546   70.8823   34.4835 H   0  0  0  0  0  0  0  0  0  0  0  0
  -19.7022   70.8424   36.0155 H   0  0  0  0  0  0  0  0  0  0  0  0
  -19.1686   72.5900   35.9175 H   0  0  0  0  0  0  0  0  0  0  0  0
  -19.8522   72.7649   33.8057 H   0  0  0  0  0  0  0  0  0  0  0  0
  -18.9758   71.2903   33.3178 H   0  0  0  0  0  0  0  0  0  0  0  0
  -23.2804   69.7281   33.3958 H   0  0  0  0  0  0  0  0  0  0  0  0
  -24.0504   69.3406   31.0509 H   0  0  0  0  0  0  0  0  0  0  0  0
  -20.4779   71.2660   29.5556 H   0  0  0  0  0  0  0  0  0  0  0  0
  -19.7180   71.6574   31.8985 H   0  0  0  0  0  0  0  0  0  0  0  0
  -22.7642   68.8663   27.1263 H   0  0  0  0  0  0  0  0  0  0  0  0
  -23.8419   70.7996   27.1548 H   0  0  0  0  0  0  0  0  0  0  0  0
  -23.8178   71.8295   28.6113 H   0  0  0  0  0  0  0  0  0  0  0  0
  1  2  2  0
  2  3  1  0
  3  4  2  0
  4  5  1  0
  5  6  2  0
  6  7  1  0
  7  8  2  3
  7  9  1  0
  3 10  1  0
 10 11  1  0
 11 12  1  0
 12 13  1  0
 13 14  1  0
 14 15  1  0
 15 16  1  0
 16 17  1  0
 17 18  2  0
 18 19  1  0
 19 20  2  0
 20 21  1  0
 21 22  2  0
 20 23  1  0
 23 24  2  3
 23 25  1  0
  6  1  1  0
 22 17  1  0
  1 26  1  0
  2 27  1  0
  4 28  1  0
  5 29  1  0
  8 30  1  0
  9 31  1  0
  9 32  1  0
 11 33  1  0
 11 34  1  0
 12 35  1  0
 12 36  1  0
 13 37  1  0
 13 38  1  0
 14 39  1  0
 14 40  1  0
 15 41  1  0
 15 42  1  0
 18 43  1  0
 19 44  1  0
 21 45  1  0
 22 46  1  0
 24 47  1  0
 25 48  1  0
 25 49  1  0
M  END
