
     RDKit          3D

 54 57  0  0  0  0  0  0  0  0999 V2000
   -1.7130   60.8240   21.6710 C   0  0  0  0  0  0  0  0  0  0  0  0
   -2.7590   61.6730   22.2340 N   0  0  0  0  0  0  0  0  0  0  0  0
   -3.6590   60.8860   23.0920 C   0  0  0  0  0  0  0  0  0  0  0  0
   -4.9640   61.6250   23.3670 C   0  0  0  0  0  0  0  0  0  0  0  0
   -5.7590   61.8510   22.0670 C   0  0  0  0  0  0  0  0  0  0  0  0
   -4.8320   61.9170   20.8420 C   0  0  0  0  0  0  0  0  0  0  0  0
   -3.4510   62.4590   21.2050 C   0  0  0  0  0  0  0  0  0  0  0  0
   -6.6450   63.1020   22.1760 C   0  0  0  0  0  0  0  0  0  0  0  0
   -6.5040   63.6450   23.4890 O   0  0  0  0  0  0  0  0  0  0  0  0
   -5.9820   64.9070   23.6130 C   0  0  0  0  0  0  0  0  0  0  0  0
   -6.3790   65.6290   24.7490 C   0  0  0  0  0  0  0  0  0  0  0  0
   -5.8810   66.9190   24.9390 C   0  0  0  0  0  0  0  0  0  0  0  0
   -4.9880   67.5070   24.0050 C   0  0  0  0  0  0  0  0  0  0  0  0
   -4.6160   66.7840   22.8650 C   0  0  0  0  0  0  0  0  0  0  0  0
   -5.1140   65.4990   22.6890 C   0  0  0  0  0  0  0  0  0  0  0  0
   -3.8000   67.2790   21.9310 N   0  0  0  0  0  0  0  0  0  0  0  0
   -3.3450   68.5210   22.1260 C   0  0  0  0  0  0  0  0  0  0  0  0
   -3.6210   69.3070   23.1690 N   0  0  0  0  0  0  0  0  0  0  0  0
   -4.4300   68.7970   24.1150 C   0  0  0  0  0  0  0  0  0  0  0  0
   -4.7260   69.5770   25.2640 N   0  0  0  0  0  0  0  0  0  0  0  0
   -4.4580   70.9490   25.4840 C   0  0  0  0  0  0  0  0  0  0  0  0
   -3.2300   71.3210   26.0550 C   0  0  0  0  0  0  0  0  0  0  0  0
   -2.9220   72.6450   26.3560 C   0  0  0  0  0  0  0  0  0  0  0  0
   -3.8710   73.6280   26.1010 C   0  0  0  0  0  0  0  0  0  0  0  0
   -5.1120   73.2910   25.5630 C   0  0  0  0  0  0  0  0  0  0  0  0
   -5.4060   71.9550   25.2670 C   0  0  0  0  0  0  0  0  0  0  0  0
   -3.4800   75.4340   26.5010 Br  0  0  0  0  0  0  0  0  0  0  0  0
   -2.3170   70.3710   26.3130 F   0  0  0  0  0  0  0  0  0  0  0  0
   -7.2390   64.9900   25.6030 O   0  0  0  0  0  0  0  0  0  0  0  0
   -6.6830   64.1200   26.5800 C   0  0  0  0  0  0  0  0  0  0  0  0
   -1.1398   60.3588   22.4865 H   0  0  0  0  0  0  0  0  0  0  0  0
   -2.1716   60.0395   21.0512 H   0  0  0  0  0  0  0  0  0  0  0  0
   -1.0396   61.4341   21.0512 H   0  0  0  0  0  0  0  0  0  0  0  0
   -3.8872   59.9338   22.5908 H   0  0  0  0  0  0  0  0  0  0  0  0
   -3.1530   60.7137   24.0534 H   0  0  0  0  0  0  0  0  0  0  0  0
   -5.5742   61.0297   24.0622 H   0  0  0  0  0  0  0  0  0  0  0  0
   -4.7244   62.6054   23.8044 H   0  0  0  0  0  0  0  0  0  0  0  0
   -6.4209   60.9843   21.9228 H   0  0  0  0  0  0  0  0  0  0  0  0
   -4.7193   60.9051   20.4257 H   0  0  0  0  0  0  0  0  0  0  0  0
   -5.2846   62.5986   20.1067 H   0  0  0  0  0  0  0  0  0  0  0  0
   -2.8305   62.4644   20.2967 H   0  0  0  0  0  0  0  0  0  0  0  0
   -3.6004   63.4675   21.6180 H   0  0  0  0  0  0  0  0  0  0  0  0
   -6.3286   63.8466   21.4307 H   0  0  0  0  0  0  0  0  0  0  0  0
   -7.6960   62.8365   21.9892 H   0  0  0  0  0  0  0  0  0  0  0  0
   -6.1859   67.4902   25.8282 H   0  0  0  0  0  0  0  0  0  0  0  0
   -4.8168   64.9296   21.7960 H   0  0  0  0  0  0  0  0  0  0  0  0
   -2.6800   68.9344   21.3535 H   0  0  0  0  0  0  0  0  0  0  0  0
   -5.1954   69.0813   26.0353 H   0  0  0  0  0  0  0  0  0  0  0  0
   -1.9452   72.9084   26.7878 H   0  0  0  0  0  0  0  0  0  0  0  0
   -5.8598   74.0746   25.3712 H   0  0  0  0  0  0  0  0  0  0  0  0
   -6.3934   71.6929   24.8592 H   0  0  0  0  0  0  0  0  0  0  0  0
   -6.9234   64.4962   27.5853 H   0  0  0  0  0  0  0  0  0  0  0  0
   -7.1045   63.1116   26.4554 H   0  0  0  0  0  0  0  0  0  0  0  0
   -5.5909   64.0789   26.4554 H   0  0  0  0  0  0  0  0  0  0  0  0
  1  2  1  0
  2  3  1  0
  3  4  1  0
  4  5  1  0
  5  6  1  0
  6  7  1  0
  5  8  1  0
  8  9  1  0
  9 10  1  0
 10 11  2  0
 11 12  1  0
 12 13  2  0
 13 14  1  0
 14 15  2  0
 14 16  1  0
 16 17  2  0
 17 18  1  0
 18 19  2  0
 19 20  1  0
 20 21  1  0
 21 22  2  0
 22 23  1  0
 23 24  2  0
 24 25  1  0
 25 26  2  0
 24 27  1  0
 22 28  1  0
 11 29  1  0
 29 30  1  0
  7  2  1  0
 15 10  1  0
 19 13  1  0
 26 21  1  0
  1 31  1  0
  1 32  1  0
  1 33  1  0
  3 34  1  0
  3 35  1  0
  4 36  1  0
  4 37  1  0
  5 38  1  0
  6 39  1  0
  6 40  1  0
  7 41  1  0
  7 42  1  0
  8 43  1  0
  8 44  1  0
 12 45  1  0
 15 46  1  0
 17 47  1  0
 20 48  1  0
 23 49  1  0
 25 50  1  0
 26 51  1  0
 30 52  1  0
 30 53  1  0
 30 54  1  0
M  END
