
     RDKit          3D

 53 54  0  0  0  0  0  0  0  0999 V2000
 -113.7610   64.9250   40.3080 C   0  0  0  0  0  0  0  0  0  0  0  0
 -114.7350   65.5750   41.2730 C   0  0  0  0  0  0  0  0  0  0  0  0
 -114.5200   66.9940   41.3080 O   0  0  0  0  0  0  0  0  0  0  0  0
 -113.5480   67.4150   42.1570 C   0  0  0  0  0  0  0  0  0  0  0  0
 -113.1160   66.8060   43.1210 O   0  0  0  0  0  0  0  0  0  0  0  0
 -113.1260   68.7810   41.7940 C   0  0  0  0  0  0  0  0  0  0  0  0
 -113.2060   69.8230   42.6500 C   0  0  0  0  0  0  0  0  0  0  0  0
 -112.8180   71.0890   42.2250 N   0  0  0  0  0  0  0  0  0  0  0  0
 -112.5030   71.4070   40.9140 C   0  0  0  0  0  0  0  0  0  0  0  0
 -112.3840   70.4160   40.0010 C   0  0  0  0  0  0  0  0  0  0  0  0
 -112.6200   68.9520   40.3650 C   0  0  0  0  0  0  0  0  0  0  0  0
 -111.3480   68.1210   40.1420 C   0  0  0  0  0  0  0  0  0  0  0  0
 -110.3100   68.1800   41.0990 C   0  0  0  0  0  0  0  0  0  0  0  0
 -109.1400   67.4350   40.9470 C   0  0  0  0  0  0  0  0  0  0  0  0
 -108.9790   66.6140   39.8360 C   0  0  0  0  0  0  0  0  0  0  0  0
 -109.9880   66.5410   38.8780 C   0  0  0  0  0  0  0  0  0  0  0  0
 -111.1650   67.2860   39.0250 C   0  0  0  0  0  0  0  0  0  0  0  0
 -112.3490   67.1210   37.7790 Cl  0  0  0  0  0  0  0  0  0  0  0  0
 -112.0710   70.6630   38.5800 C   0  0  0  0  0  0  0  0  0  0  0  0
 -110.9760   71.0280   38.1820 O   0  0  0  0  0  0  0  0  0  0  0  0
 -113.1840   70.4890   37.8260 O   0  0  0  0  0  0  0  0  0  0  0  0
 -113.7380   71.7070   37.3310 C   0  0  0  0  0  0  0  0  0  0  0  0
 -112.3660   72.8770   40.6100 C   0  0  0  0  0  0  0  0  0  0  0  0
 -113.7570   69.7270   44.0610 C   0  0  0  0  0  0  0  0  0  0  0  0
 -113.2220   70.8120   44.8370 O   0  0  0  0  0  0  0  0  0  0  0  0
 -114.2530   71.5010   45.5460 C   0  0  0  0  0  0  0  0  0  0  0  0
 -114.0110   73.0100   45.4280 C   0  0  0  0  0  0  0  0  0  0  0  0
 -113.0650   73.3620   44.3710 N   0  0  0  0  0  0  0  0  0  0  0  0
 -112.9770   64.4018   40.8752 H   0  0  0  0  0  0  0  0  0  0  0  0
 -114.2985   64.2039   39.6746 H   0  0  0  0  0  0  0  0  0  0  0  0
 -113.3014   65.6981   39.6746 H   0  0  0  0  0  0  0  0  0  0  0  0
 -115.7645   65.3708   40.9439 H   0  0  0  0  0  0  0  0  0  0  0  0
 -114.5755   65.1612   42.2797 H   0  0  0  0  0  0  0  0  0  0  0  0
 -112.7612   71.8379   42.9298 H   0  0  0  0  0  0  0  0  0  0  0  0
 -113.4094   68.5816   39.6945 H   0  0  0  0  0  0  0  0  0  0  0  0
 -110.4267   68.8262   41.9815 H   0  0  0  0  0  0  0  0  0  0  0  0
 -108.3456   67.4970   41.7053 H   0  0  0  0  0  0  0  0  0  0  0  0
 -108.0584   66.0244   39.7141 H   0  0  0  0  0  0  0  0  0  0  0  0
 -109.8592   65.8928   37.9987 H   0  0  0  0  0  0  0  0  0  0  0  0
 -114.0294   72.3476   38.1765 H   0  0  0  0  0  0  0  0  0  0  0  0
 -112.9883   72.2281   36.7174 H   0  0  0  0  0  0  0  0  0  0  0  0
 -114.6234   71.4844   36.7174 H   0  0  0  0  0  0  0  0  0  0  0  0
 -112.3133   73.4428   41.5518 H   0  0  0  0  0  0  0  0  0  0  0  0
 -111.4481   73.0471   40.0282 H   0  0  0  0  0  0  0  0  0  0  0  0
 -113.2366   73.2138   40.0282 H   0  0  0  0  0  0  0  0  0  0  0  0
 -114.8546   69.7954   44.0357 H   0  0  0  0  0  0  0  0  0  0  0  0
 -113.4703   68.7654   44.5118 H   0  0  0  0  0  0  0  0  0  0  0  0
 -115.2319   71.2487   45.1123 H   0  0  0  0  0  0  0  0  0  0  0  0
 -114.2418   71.2026   46.6047 H   0  0  0  0  0  0  0  0  0  0  0  0
 -114.9715   73.5022   45.2153 H   0  0  0  0  0  0  0  0  0  0  0  0
 -113.5756   73.3460   46.3806 H   0  0  0  0  0  0  0  0  0  0  0  0
 -112.1846   73.6896   44.7934 H   0  0  0  0  0  0  0  0  0  0  0  0
 -112.8786   72.5340   43.7874 H   0  0  0  0  0  0  0  0  0  0  0  0
  1  2  1  0
  2  3  1  0
  3  4  1  0
  4  5  2  0
  4  6  1  0
  6  7  2  0
  7  8  1  0
  8  9  1  0
  9 10  2  0
 10 11  1  0
 11 12  1  0
 12 13  2  0
 13 14  1  0
 14 15  2  0
 15 16  1  0
 16 17  2  0
 17 18  1  0
 10 19  1  0
 19 20  2  0
 19 21  1  0
 21 22  1  0
  9 23  1  0
  7 24  1  0
 24 25  1  0
 25 26  1  0
 26 27  1  0
 27 28  1  0
 11  6  1  0
 17 12  1  0
  1 29  1  0
  1 30  1  0
  1 31  1  0
  2 32  1  0
  2 33  1  0
  8 34  1  0
 11 35  1  0
 13 36  1  0
 14 37  1  0
 15 38  1  0
 16 39  1  0
 22 40  1  0
 22 41  1  0
 22 42  1  0
 23 43  1  0
 23 44  1  0
 23 45  1  0
 24 46  1  0
 24 47  1  0
 26 48  1  0
 26 49  1  0
 27 50  1  0
 27 51  1  0
 28 52  1  0
 28 53  1  0
M  END
