
     RDKit          3D

 51 52  0  0  0  0  0  0  0  0999 V2000
   -3.8920   72.3460   25.5970 C   0  0  0  0  0  0  0  0  0  0  0  0
   -4.0350   73.7210   26.0470 N   0  0  0  0  0  0  0  0  0  0  0  0
   -2.9660   74.2360   26.8860 C   0  0  0  0  0  0  0  0  0  0  0  0
   -5.1380   74.5310   25.7880 C   0  0  0  0  0  0  0  0  0  0  0  0
   -5.1530   75.7280   26.0840 O   0  0  0  0  0  0  0  0  0  0  0  0
   -6.3390   73.9080   25.0600 C   0  0  0  0  0  0  0  0  0  0  0  0
   -6.6250   74.4300   23.7620 O   0  0  0  0  0  0  0  0  0  0  0  0
   -6.0760   73.7260   22.7270 C   0  0  0  0  0  0  0  0  0  0  0  0
   -6.5120   72.6700   22.2970 O   0  0  0  0  0  0  0  0  0  0  0  0
   -4.8630   74.4730   22.2160 C   0  0  0  0  0  0  0  0  0  0  0  0
   -4.8700   74.7240   20.7280 C   0  0  0  0  0  0  0  0  0  0  0  0
   -3.8330   74.2340   19.9180 C   0  0  0  0  0  0  0  0  0  0  0  0
   -3.8390   74.4680   18.5430 C   0  0  0  0  0  0  0  0  0  0  0  0
   -4.8870   75.1880   17.9780 C   0  0  0  0  0  0  0  0  0  0  0  0
   -5.9100   75.7110   18.7650 C   0  0  0  0  0  0  0  0  0  0  0  0
   -5.9030   75.4740   20.1400 C   0  0  0  0  0  0  0  0  0  0  0  0
   -4.8400   75.4520   16.6070 O   0  0  0  0  0  0  0  0  0  0  0  0
   -6.0780   75.5400   16.0000 C   0  0  0  0  0  0  0  0  0  0  0  0
   -6.8240   76.5080   15.9720 O   0  0  0  0  0  0  0  0  0  0  0  0
   -6.4160   74.2390   15.3560 C   0  0  0  0  0  0  0  0  0  0  0  0
   -6.4630   73.0970   16.1630 C   0  0  0  0  0  0  0  0  0  0  0  0
   -6.7760   71.8500   15.6070 C   0  0  0  0  0  0  0  0  0  0  0  0
   -7.0310   71.7060   14.2330 C   0  0  0  0  0  0  0  0  0  0  0  0
   -7.0060   72.8620   13.4450 C   0  0  0  0  0  0  0  0  0  0  0  0
   -6.6930   74.1150   13.9920 C   0  0  0  0  0  0  0  0  0  0  0  0
   -7.3860   70.4330   13.7450 N   0  0  0  0  0  0  0  0  0  0  0  0
   -8.6200   69.9620   13.4150 C   0  0  0  0  0  0  0  0  0  0  0  0
   -9.7410   70.5870   13.4420 N   0  0  0  0  0  0  0  0  0  0  0  0
   -8.5570   68.6670   13.0150 N   0  0  0  0  0  0  0  0  0  0  0  0
   -3.8227   71.6799   26.4697 H   0  0  0  0  0  0  0  0  0  0  0  0
   -4.7659   72.0659   24.9904 H   0  0  0  0  0  0  0  0  0  0  0  0
   -2.9792   72.2518   24.9904 H   0  0  0  0  0  0  0  0  0  0  0  0
   -3.2357   74.1061   27.9445 H   0  0  0  0  0  0  0  0  0  0  0  0
   -2.0368   73.6867   26.6743 H   0  0  0  0  0  0  0  0  0  0  0  0
   -2.8164   75.3050   26.6743 H   0  0  0  0  0  0  0  0  0  0  0  0
   -6.1460   72.8303   24.9541 H   0  0  0  0  0  0  0  0  0  0  0  0
   -7.2172   74.1502   25.6766 H   0  0  0  0  0  0  0  0  0  0  0  0
   -4.8154   75.4448   22.7291 H   0  0  0  0  0  0  0  0  0  0  0  0
   -3.9902   73.8366   22.4241 H   0  0  0  0  0  0  0  0  0  0  0  0
   -3.0101   73.6616   20.3710 H   0  0  0  0  0  0  0  0  0  0  0  0
   -3.0230   74.0870   17.9113 H   0  0  0  0  0  0  0  0  0  0  0  0
   -6.7151   76.3047   18.3074 H   0  0  0  0  0  0  0  0  0  0  0  0
   -6.7113   75.8768   20.7680 H   0  0  0  0  0  0  0  0  0  0  0  0
   -6.2531   73.1789   17.2397 H   0  0  0  0  0  0  0  0  0  0  0  0
   -6.8231   70.9656   16.2594 H   0  0  0  0  0  0  0  0  0  0  0  0
   -7.2371   72.7864   12.3722 H   0  0  0  0  0  0  0  0  0  0  0  0
   -6.6655   75.0038   13.3445 H   0  0  0  0  0  0  0  0  0  0  0  0
  -10.6068   70.1039   13.1631 H   0  0  0  0  0  0  0  0  0  0  0  0
   -9.7746   71.5716   13.7426 H   0  0  0  0  0  0  0  0  0  0  0  0
   -9.4155   68.1728   12.7328 H   0  0  0  0  0  0  0  0  0  0  0  0
   -7.6507   68.1781   12.9936 H   0  0  0  0  0  0  0  0  0  0  0  0
  1  2  1  0
  2  3  1  0
  2  4  1  0
  4  5  2  0
  4  6  1  0
  6  7  1  0
  7  8  1  0
  8  9  2  0
  8 10  1  0
 10 11  1  0
 11 12  2  0
 12 13  1  0
 13 14  2  0
 14 15  1  0
 15 16  2  0
 14 17  1  0
 17 18  1  0
 18 19  2  0
 18 20  1  0
 20 21  2  0
 21 22  1  0
 22 23  2  0
 23 24  1  0
 24 25  2  0
 23 26  1  0
 26 27  2  3
 27 28  1  0
 27 29  1  0
 16 11  1  0
 25 20  1  0
  1 30  1  0
  1 31  1  0
  1 32  1  0
  3 33  1  0
  3 34  1  0
  3 35  1  0
  6 36  1  0
  6 37  1  0
 10 38  1  0
 10 39  1  0
 12 40  1  0
 13 41  1  0
 15 42  1  0
 16 43  1  0
 21 44  1  0
 22 45  1  0
 24 46  1  0
 25 47  1  0
 28 48  1  0
 28 49  1  0
 29 50  1  0
 29 51  1  0
M  END
