
     RDKit          3D

 49 50  0  0  0  0  0  0  0  0999 V2000
  -22.4520   73.1500   32.7910 C   0  0  0  0  0  0  0  0  0  0  0  0
  -21.1480   73.0790   32.0000 C   0  0  0  0  0  0  0  0  0  0  0  0
  -20.4610   71.7840   32.1840 N   0  0  0  0  0  0  0  0  0  0  0  0
  -20.4090   71.4260   33.6180 C   0  0  0  0  0  0  0  0  0  0  0  0
  -19.0110   71.6570   34.2090 C   0  0  0  0  0  0  0  0  0  0  0  0
  -18.9370   71.1590   35.6600 C   0  0  0  0  0  0  0  0  0  0  0  0
  -17.7390   70.2280   35.9020 C   0  0  0  0  0  0  0  0  0  0  0  0
  -16.5010   70.6080   35.0930 C   0  0  0  0  0  0  0  0  0  0  0  0
  -18.0680   68.8050   35.7810 N   0  0  0  0  0  0  0  0  0  0  0  0
  -19.2750   68.2050   35.4170 C   0  0  0  0  0  0  0  0  0  0  0  0
  -19.5190   67.8940   34.0440 C   0  0  0  0  0  0  0  0  0  0  0  0
  -18.5980   68.1560   32.9990 C   0  0  0  0  0  0  0  0  0  0  0  0
  -18.8920   67.8450   31.6710 C   0  0  0  0  0  0  0  0  0  0  0  0
  -20.1110   67.2580   31.3670 C   0  0  0  0  0  0  0  0  0  0  0  0
  -21.0240   66.9750   32.3780 C   0  0  0  0  0  0  0  0  0  0  0  0
  -20.7480   67.2730   33.7040 C   0  0  0  0  0  0  0  0  0  0  0  0
  -21.6720   66.9410   34.6130 N   0  0  0  0  0  0  0  0  0  0  0  0
  -21.3960   67.1970   35.9030 C   0  0  0  0  0  0  0  0  0  0  0  0
  -20.2330   67.8010   36.3430 C   0  0  0  0  0  0  0  0  0  0  0  0
  -20.4890   66.8700   29.7350 Cl  0  0  0  0  0  0  0  0  0  0  0  0
  -21.1510   70.7190   31.4090 C   0  0  0  0  0  0  0  0  0  0  0  0
  -21.2100   71.0680   29.9130 C   0  0  0  0  0  0  0  0  0  0  0  0
  -20.2610   70.2770   29.1990 O   0  0  0  0  0  0  0  0  0  0  0  0
  -22.2287   73.1378   33.8680 H   0  0  0  0  0  0  0  0  0  0  0  0
  -22.9846   74.0785   32.5374 H   0  0  0  0  0  0  0  0  0  0  0  0
  -23.0822   72.2848   32.5374 H   0  0  0  0  0  0  0  0  0  0  0  0
  -21.3725   73.2137   30.9316 H   0  0  0  0  0  0  0  0  0  0  0  0
  -20.4822   73.8732   32.3689 H   0  0  0  0  0  0  0  0  0  0  0  0
  -21.1349   72.0442   34.1666 H   0  0  0  0  0  0  0  0  0  0  0  0
  -20.6504   70.3571   33.7142 H   0  0  0  0  0  0  0  0  0  0  0  0
  -18.2705   71.1133   33.6040 H   0  0  0  0  0  0  0  0  0  0  0  0
  -18.8002   72.7366   34.1981 H   0  0  0  0  0  0  0  0  0  0  0  0
  -18.8483   72.0289   36.3274 H   0  0  0  0  0  0  0  0  0  0  0  0
  -19.8530   70.5849   35.8635 H   0  0  0  0  0  0  0  0  0  0  0  0
  -17.4737   70.3872   36.9576 H   0  0  0  0  0  0  0  0  0  0  0  0
  -15.6784   70.8605   35.7783 H   0  0  0  0  0  0  0  0  0  0  0  0
  -16.2028   69.7600   34.4589 H   0  0  0  0  0  0  0  0  0  0  0  0
  -16.7299   71.4772   34.4589 H   0  0  0  0  0  0  0  0  0  0  0  0
  -17.2987   68.1544   35.9951 H   0  0  0  0  0  0  0  0  0  0  0  0
  -17.6283   68.6155   33.2407 H   0  0  0  0  0  0  0  0  0  0  0  0
  -18.1653   68.0629   30.8745 H   0  0  0  0  0  0  0  0  0  0  0  0
  -21.9846   66.5052   32.1202 H   0  0  0  0  0  0  0  0  0  0  0  0
  -22.1430   66.9075   36.6568 H   0  0  0  0  0  0  0  0  0  0  0  0
  -20.0655   67.9615   37.4183 H   0  0  0  0  0  0  0  0  0  0  0  0
  -20.6047   69.7726   31.5352 H   0  0  0  0  0  0  0  0  0  0  0  0
  -22.1804   70.6265   31.7854 H   0  0  0  0  0  0  0  0  0  0  0  0
  -22.2202   70.8631   29.5289 H   0  0  0  0  0  0  0  0  0  0  0  0
  -20.9733   72.1336   29.7769 H   0  0  0  0  0  0  0  0  0  0  0  0
  -19.6828   69.7950   29.8420 H   0  0  0  0  0  0  0  0  0  0  0  0
  1  2  1  0
  2  3  1  0
  3  4  1  0
  4  5  1  0
  5  6  1  0
  6  7  1  0
  7  8  1  0
  7  9  1  0
  9 10  1  0
 10 11  2  0
 11 12  1  0
 12 13  2  0
 13 14  1  0
 14 15  2  0
 15 16  1  0
 16 17  2  0
 17 18  1  0
 18 19  2  0
 14 20  1  0
  3 21  1  0
 21 22  1  0
 22 23  1  0
 19 10  1  0
 16 11  1  0
  1 24  1  0
  1 25  1  0
  1 26  1  0
  2 27  1  0
  2 28  1  0
  4 29  1  0
  4 30  1  0
  5 31  1  0
  5 32  1  0
  6 33  1  0
  6 34  1  0
  7 35  1  0
  8 36  1  0
  8 37  1  0
  8 38  1  0
  9 39  1  0
 12 40  1  0
 13 41  1  0
 15 42  1  0
 18 43  1  0
 19 44  1  0
 21 45  1  0
 21 46  1  0
 22 47  1  0
 22 48  1  0
 23 49  1  0
M  END
