
     RDKit          3D

 82 84  0  0  0  0  0  0  0  0999 V2000
 -123.5250   57.2560   34.9510 C   0  0  0  0  0  0  0  0  0  0  0  0
 -124.1910   58.3430   35.7610 C   0  0  0  0  0  0  0  0  0  0  0  0
 -125.6460   58.6540   35.4350 C   0  0  2  0  0  0  0  0  0  0  0  0
 -124.5790   59.6150   35.0150 C   0  0  1  0  0  0  0  0  0  0  0  0
 -124.8820   60.9530   35.6550 C   0  0  2  0  0  0  0  0  0  0  0  0
 -125.9620   60.6590   36.6040 N   0  0  0  0  0  0  0  0  0  0  0  0
 -126.5900   59.3720   36.3510 C   0  0  0  0  0  0  0  0  0  0  0  0
 -126.5010   61.5110   37.5420 C   0  0  0  0  0  0  0  0  0  0  0  0
 -127.5370   61.2150   38.1490 O   0  0  0  0  0  0  0  0  0  0  0  0
 -125.8000   62.8660   37.8370 C   0  0  2  0  0  0  0  0  0  0  0  0
 -124.9070   62.8460   39.1180 C   0  0  0  0  0  0  0  0  0  0  0  0
 -124.3970   61.4060   39.3510 C   0  0  0  0  0  0  0  0  0  0  0  0
 -125.7240   63.2600   40.3550 C   0  0  0  0  0  0  0  0  0  0  0  0
 -123.6820   63.7760   39.0130 C   0  0  0  0  0  0  0  0  0  0  0  0
 -126.8860   63.8430   37.9560 N   0  0  0  0  0  0  0  0  0  0  0  0
 -126.8090   65.0600   37.3280 C   0  0  0  0  0  0  0  0  0  0  0  0
 -125.7930   65.4940   36.8050 O   0  0  0  0  0  0  0  0  0  0  0  0
 -128.0120   65.7130   37.3930 N   0  0  0  0  0  0  0  0  0  0  0  0
 -128.2670   67.0380   36.8120 C   0  0  0  0  0  0  0  0  0  0  0  0
 -129.1490   67.8250   37.7990 C   0  0  0  0  0  0  0  0  0  0  0  0
 -129.0310   66.9160   35.4840 C   0  0  0  0  0  0  0  0  0  0  0  0
 -126.9570   67.8130   36.6020 C   0  0  0  0  0  0  0  0  0  0  0  0
 -125.3700   61.9470   34.5690 C   0  0  0  0  0  0  0  0  0  0  0  0
 -124.9410   63.0930   34.4520 O   0  0  0  0  0  0  0  0  0  0  0  0
 -126.3900   61.4520   33.7820 N   0  0  0  0  0  0  0  0  0  0  0  0
 -127.0030   62.2840   32.7290 C   0  0  0  0  0  0  0  0  0  0  0  0
 -126.5760   61.7120   31.3730 C   0  0  0  0  0  0  0  0  0  0  0  0
 -125.3470   62.3290   30.7130 C   0  0  0  0  0  0  0  0  0  0  0  0
 -125.3570   63.7640   30.1220 C   0  0  0  0  0  0  0  0  0  0  0  0
 -124.2860   63.2780   29.1210 C   0  0  0  0  0  0  0  0  0  0  0  0
 -124.8260   61.8460   29.3350 C   0  0  0  0  0  0  0  0  0  0  0  0
 -128.5010   62.1620   32.9690 C   0  0  0  0  0  0  0  0  0  0  0  0
 -129.3070   61.7650   32.1250 O   0  0  0  0  0  0  0  0  0  0  0  0
 -129.0110   62.4990   34.3750 C   0  0  0  0  0  0  0  0  0  0  0  0
 -128.4790   63.3380   35.0790 O   0  0  0  0  0  0  0  0  0  0  0  0
 -130.1290   61.8020   34.7490 N   0  0  0  0  0  0  0  0  0  0  0  0
 -123.6900   58.4110   37.1780 C   0  0  0  0  0  0  0  0  0  0  0  0
 -123.0728   56.5179   35.6297 H   0  0  0  0  0  0  0  0  0  0  0  0
 -124.2744   56.7600   34.3167 H   0  0  0  0  0  0  0  0  0  0  0  0
 -122.7428   57.6985   34.3167 H   0  0  0  0  0  0  0  0  0  0  0  0
 -126.4133   57.9763   35.0326 H   0  0  0  0  0  0  0  0  0  0  0  0
 -124.0913   60.0537   34.1320 H   0  0  0  0  0  0  0  0  0  0  0  0
 -124.0084   61.4084   36.1443 H   0  0  0  0  0  0  0  0  0  0  0  0
 -126.7182   58.8131   37.2897 H   0  0  0  0  0  0  0  0  0  0  0  0
 -127.5919   59.4804   35.9100 H   0  0  0  0  0  0  0  0  0  0  0  0
 -125.0958   63.1138   37.0291 H   0  0  0  0  0  0  0  0  0  0  0  0
 -124.3282   61.2117   40.4315 H   0  0  0  0  0  0  0  0  0  0  0  0
 -125.0965   60.6908   38.8937 H   0  0  0  0  0  0  0  0  0  0  0  0
 -123.4033   61.2905   38.8937 H   0  0  0  0  0  0  0  0  0  0  0  0
 -125.1751   62.9819   41.2668 H   0  0  0  0  0  0  0  0  0  0  0  0
 -125.8844   64.3482   40.3411 H   0  0  0  0  0  0  0  0  0  0  0  0
 -126.6963   62.7458   40.3411 H   0  0  0  0  0  0  0  0  0  0  0  0
 -123.3344   64.0399   40.0227 H   0  0  0  0  0  0  0  0  0  0  0  0
 -122.8757   63.2605   38.4707 H   0  0  0  0  0  0  0  0  0  0  0  0
 -123.9618   64.6912   38.4707 H   0  0  0  0  0  0  0  0  0  0  0  0
 -127.7176   63.6128   38.5184 H   0  0  0  0  0  0  0  0  0  0  0  0
 -128.7883   65.2441   37.8812 H   0  0  0  0  0  0  0  0  0  0  0  0
 -128.8630   67.5698   38.8301 H   0  0  0  0  0  0  0  0  0  0  0  0
 -129.0090   68.9038   37.6360 H   0  0  0  0  0  0  0  0  0  0  0  0
 -130.2050   67.5635   37.6360 H   0  0  0  0  0  0  0  0  0  0  0  0
 -130.0982   66.7456   35.6892 H   0  0  0  0  0  0  0  0  0  0  0  0
 -128.9124   67.8445   34.9061 H   0  0  0  0  0  0  0  0  0  0  0  0
 -128.6292   66.0706   34.9061 H   0  0  0  0  0  0  0  0  0  0  0  0
 -126.5224   68.0701   37.5792 H   0  0  0  0  0  0  0  0  0  0  0  0
 -126.2481   67.1889   36.0382 H   0  0  0  0  0  0  0  0  0  0  0  0
 -127.1627   68.7349   36.0382 H   0  0  0  0  0  0  0  0  0  0  0  0
 -126.7273   60.4903   33.9316 H   0  0  0  0  0  0  0  0  0  0  0  0
 -126.7014   63.3417   32.7430 H   0  0  0  0  0  0  0  0  0  0  0  0
 -126.3727   60.6403   31.5149 H   0  0  0  0  0  0  0  0  0  0  0  0
 -127.4092   61.9420   30.6927 H   0  0  0  0  0  0  0  0  0  0  0  0
 -124.8154   62.0961   31.6474 H   0  0  0  0  0  0  0  0  0  0  0  0
 -126.3106   64.0663   29.6645 H   0  0  0  0  0  0  0  0  0  0  0  0
 -125.2031   64.6528   30.7516 H   0  0  0  0  0  0  0  0  0  0  0  0
 -124.4059   63.6647   28.0982 H   0  0  0  0  0  0  0  0  0  0  0  0
 -123.2209   63.5188   29.2534 H   0  0  0  0  0  0  0  0  0  0  0  0
 -125.6113   61.5403   28.6280 H   0  0  0  0  0  0  0  0  0  0  0  0
 -124.1804   60.9609   29.2358 H   0  0  0  0  0  0  0  0  0  0  0  0
 -130.5473   61.9590   35.6770 H   0  0  0  0  0  0  0  0  0  0  0  0
 -130.5515   61.1208   34.1022 H   0  0  0  0  0  0  0  0  0  0  0  0
 -124.5358   58.2962   37.8719 H   0  0  0  0  0  0  0  0  0  0  0  0
 -122.9632   57.6033   37.3491 H   0  0  0  0  0  0  0  0  0  0  0  0
 -123.2047   59.3832   37.3491 H   0  0  0  0  0  0  0  0  0  0  0  0
  1  2  1  0
  2  3  1  0
  3  4  1  0
  4  5  1  0
  5  6  1  0
  6  7  1  0
  6  8  1  0
  8  9  2  0
  8 10  1  0
 10 11  1  0
 11 12  1  0
 11 13  1  0
 11 14  1  0
 10 15  1  0
 15 16  1  0
 16 17  2  0
 16 18  1  0
 18 19  1  0
 19 20  1  0
 19 21  1  0
 19 22  1  0
  5 23  1  0
 23 24  2  0
 23 25  1  0
 25 26  1  0
 26 27  1  0
 27 28  1  0
 28 29  1  0
 29 30  1  0
 30 31  1  0
 26 32  1  0
 32 33  2  0
 32 34  1  0
 34 35  2  0
 34 36  1  0
  2 37  1  0
  4  2  1  0
  7  3  1  0
 31 28  1  0
  1 38  1  0
  1 39  1  0
  1 40  1  0
  3 41  1  6
  4 42  1  6
  5 43  1  1
  7 44  1  0
  7 45  1  0
 10 46  1  6
 12 47  1  0
 12 48  1  0
 12 49  1  0
 13 50  1  0
 13 51  1  0
 13 52  1  0
 14 53  1  0
 14 54  1  0
 14 55  1  0
 15 56  1  0
 18 57  1  0
 20 58  1  0
 20 59  1  0
 20 60  1  0
 21 61  1  0
 21 62  1  0
 21 63  1  0
 22 64  1  0
 22 65  1  0
 22 66  1  0
 25 67  1  0
 26 68  1  0
 27 69  1  0
 27 70  1  0
 28 71  1  0
 29 72  1  0
 29 73  1  0
 30 74  1  0
 30 75  1  0
 31 76  1  0
 31 77  1  0
 36 78  1  0
 36 79  1  0
 37 80  1  0
 37 81  1  0
 37 82  1  0
M  END
