
     RDKit          3D

 40 41  0  0  0  0  0  0  0  0999 V2000
 -129.6550   61.8590   33.4320 C   0  0  0  0  0  0  0  0  0  0  0  0
 -128.1710   62.1720   33.6070 C   0  0  0  0  0  0  0  0  0  0  0  0
 -127.8590   62.9930   34.8720 C   0  0  0  0  0  0  0  0  0  0  0  0
 -129.0830   63.7280   35.4310 C   0  0  0  0  0  0  0  0  0  0  0  0
 -128.7780   64.3320   36.8020 C   0  0  0  0  0  0  0  0  0  0  0  0
 -130.0190   64.6570   37.4950 N   0  0  0  0  0  0  0  0  0  0  0  0
 -127.5810   62.7690   32.3880 N   0  0  0  0  0  0  0  0  0  0  0  0
 -126.8290   61.9230   31.5220 C   0  0  0  0  0  0  0  0  0  0  0  0
 -125.8760   62.4970   30.6590 C   0  0  0  0  0  0  0  0  0  0  0  0
 -125.1530   61.6460   29.7950 C   0  0  0  0  0  0  0  0  0  0  0  0
 -125.3780   60.2570   29.8050 C   0  0  0  0  0  0  0  0  0  0  0  0
 -126.3110   59.6990   30.6740 C   0  0  0  0  0  0  0  0  0  0  0  0
 -127.0280   60.5350   31.5290 C   0  0  0  0  0  0  0  0  0  0  0  0
 -126.6110   58.3710   30.7880 O   0  0  0  0  0  0  0  0  0  0  0  0
 -127.1050   57.7140   29.6270 C   0  0  0  0  0  0  0  0  0  0  0  0
 -124.2120   62.2270   28.9330 C   0  0  0  0  0  0  0  0  0  0  0  0
 -124.0100   63.6010   28.9470 C   0  0  0  0  0  0  0  0  0  0  0  0
 -124.7620   64.3570   29.8240 C   0  0  0  0  0  0  0  0  0  0  0  0
 -125.6810   63.8380   30.6670 N   0  0  0  0  0  0  0  0  0  0  0  0
 -130.1277   61.7593   34.4202 H   0  0  0  0  0  0  0  0  0  0  0  0
 -130.1386   62.6749   32.8748 H   0  0  0  0  0  0  0  0  0  0  0  0
 -129.7679   60.9173   32.8748 H   0  0  0  0  0  0  0  0  0  0  0  0
 -127.6786   61.2007   33.7621 H   0  0  0  0  0  0  0  0  0  0  0  0
 -127.4767   62.3113   35.6460 H   0  0  0  0  0  0  0  0  0  0  0  0
 -127.1183   63.7566   34.5922 H   0  0  0  0  0  0  0  0  0  0  0  0
 -129.3670   64.5335   34.7378 H   0  0  0  0  0  0  0  0  0  0  0  0
 -129.9063   63.0067   35.5402 H   0  0  0  0  0  0  0  0  0  0  0  0
 -128.2069   63.6066   37.4000 H   0  0  0  0  0  0  0  0  0  0  0  0
 -128.1902   65.2519   36.6669 H   0  0  0  0  0  0  0  0  0  0  0  0
 -129.8647   64.6166   38.5126 H   0  0  0  0  0  0  0  0  0  0  0  0
 -130.3214   65.6055   37.2310 H   0  0  0  0  0  0  0  0  0  0  0  0
 -127.7102   63.7677   32.1716 H   0  0  0  0  0  0  0  0  0  0  0  0
 -124.8123   59.6074   29.1209 H   0  0  0  0  0  0  0  0  0  0  0  0
 -127.7627   60.0980   32.2212 H   0  0  0  0  0  0  0  0  0  0  0  0
 -127.7410   56.8681   29.9270 H   0  0  0  0  0  0  0  0  0  0  0  0
 -127.6959   58.4227   29.0281 H   0  0  0  0  0  0  0  0  0  0  0  0
 -126.2601   57.3432   29.0281 H   0  0  0  0  0  0  0  0  0  0  0  0
 -123.6330   61.5937   28.2448 H   0  0  0  0  0  0  0  0  0  0  0  0
 -123.2734   64.0725   28.2798 H   0  0  0  0  0  0  0  0  0  0  0  0
 -124.6035   65.4454   29.8370 H   0  0  0  0  0  0  0  0  0  0  0  0
  1  2  1  0
  2  3  1  0
  3  4  1  0
  4  5  1  0
  5  6  1  0
  2  7  1  0
  7  8  1  0
  8  9  2  0
  9 10  1  0
 10 11  2  0
 11 12  1  0
 12 13  2  0
 12 14  1  0
 14 15  1  0
 10 16  1  0
 16 17  2  0
 17 18  1  0
 18 19  2  0
 13  8  1  0
 19  9  1  0
  1 20  1  0
  1 21  1  0
  1 22  1  0
  2 23  1  0
  3 24  1  0
  3 25  1  0
  4 26  1  0
  4 27  1  0
  5 28  1  0
  5 29  1  0
  6 30  1  0
  6 31  1  0
  7 32  1  0
 11 33  1  0
 13 34  1  0
 15 35  1  0
 15 36  1  0
 15 37  1  0
 16 38  1  0
 17 39  1  0
 18 40  1  0
M  END
