
     RDKit          3D

 40 41  0  0  0  0  0  0  0  0999 V2000
   -5.7750   -1.3960   12.4380 C   0  0  0  0  0  0  0  0  0  0  0  0
   -5.0320   -2.6940   12.7400 C   0  0  0  0  0  0  0  0  0  0  0  0
   -5.9330   -3.8020   13.3160 C   0  0  0  0  0  0  0  0  0  0  0  0
   -7.3810   -3.3490   13.5310 C   0  0  0  0  0  0  0  0  0  0  0  0
   -8.2570   -4.5180   13.9830 C   0  0  0  0  0  0  0  0  0  0  0  0
   -7.4840   -5.4350   14.8130 N   0  0  0  0  0  0  0  0  0  0  0  0
   -3.8230   -2.4660   13.5630 N   0  0  0  0  0  0  0  0  0  0  0  0
   -2.7350   -1.7550   12.9770 C   0  0  0  0  0  0  0  0  0  0  0  0
   -2.2170   -0.6260   13.6400 C   0  0  0  0  0  0  0  0  0  0  0  0
   -1.1510    0.0770   13.0370 C   0  0  0  0  0  0  0  0  0  0  0  0
   -0.6200   -0.3480   11.8050 C   0  0  0  0  0  0  0  0  0  0  0  0
   -1.1300   -1.4750   11.1670 C   0  0  0  0  0  0  0  0  0  0  0  0
   -2.1830   -2.1720   11.7590 C   0  0  0  0  0  0  0  0  0  0  0  0
   -0.6950   -1.9950    9.9800 O   0  0  0  0  0  0  0  0  0  0  0  0
   -0.7210   -3.4100    9.8420 C   0  0  0  0  0  0  0  0  0  0  0  0
   -0.6460    1.2040   13.7000 C   0  0  0  0  0  0  0  0  0  0  0  0
   -1.1890    1.5990   14.9150 C   0  0  0  0  0  0  0  0  0  0  0  0
   -2.2300    0.8520   15.4320 C   0  0  0  0  0  0  0  0  0  0  0  0
   -2.7490   -0.2360   14.8240 N   0  0  0  0  0  0  0  0  0  0  0  0
   -6.0555   -0.9059   13.3820 H   0  0  0  0  0  0  0  0  0  0  0  0
   -5.1231   -0.7270   11.8571 H   0  0  0  0  0  0  0  0  0  0  0  0
   -6.6820   -1.6193   11.8571 H   0  0  0  0  0  0  0  0  0  0  0  0
   -4.6921   -3.0737   11.7652 H   0  0  0  0  0  0  0  0  0  0  0  0
   -5.9322   -4.6520   12.6178 H   0  0  0  0  0  0  0  0  0  0  0  0
   -5.5260   -4.0768   14.3003 H   0  0  0  0  0  0  0  0  0  0  0  0
   -7.4022   -2.5641   14.3014 H   0  0  0  0  0  0  0  0  0  0  0  0
   -7.7737   -2.9632   12.5786 H   0  0  0  0  0  0  0  0  0  0  0  0
   -9.1075   -4.1314   14.5636 H   0  0  0  0  0  0  0  0  0  0  0  0
   -8.6218   -5.0571   13.0963 H   0  0  0  0  0  0  0  0  0  0  0  0
   -7.6582   -5.2283   15.8069 H   0  0  0  0  0  0  0  0  0  0  0  0
   -7.7670   -6.4042   14.6091 H   0  0  0  0  0  0  0  0  0  0  0  0
   -3.7692   -2.8113   14.5319 H   0  0  0  0  0  0  0  0  0  0  0  0
    0.2044    0.2147   11.3427 H   0  0  0  0  0  0  0  0  0  0  0  0
   -2.5873   -3.0653   11.2605 H   0  0  0  0  0  0  0  0  0  0  0  0
   -0.7296   -3.8755   10.8386 H   0  0  0  0  0  0  0  0  0  0  0  0
   -1.6248   -3.7081    9.2903 H   0  0  0  0  0  0  0  0  0  0  0  0
    0.1712   -3.7411    9.2903 H   0  0  0  0  0  0  0  0  0  0  0  0
    0.1821    1.7765   13.2567 H   0  0  0  0  0  0  0  0  0  0  0  0
   -0.8025    2.4793   15.4495 H   0  0  0  0  0  0  0  0  0  0  0  0
   -2.6612    1.1619   16.3954 H   0  0  0  0  0  0  0  0  0  0  0  0
  1  2  1  0
  2  3  1  0
  3  4  1  0
  4  5  1  0
  5  6  1  0
  2  7  1  0
  7  8  1  0
  8  9  2  0
  9 10  1  0
 10 11  2  0
 11 12  1  0
 12 13  2  0
 12 14  1  0
 14 15  1  0
 10 16  1  0
 16 17  2  0
 17 18  1  0
 18 19  2  0
 13  8  1  0
 19  9  1  0
  1 20  1  0
  1 21  1  0
  1 22  1  0
  2 23  1  0
  3 24  1  0
  3 25  1  0
  4 26  1  0
  4 27  1  0
  5 28  1  0
  5 29  1  0
  6 30  1  0
  6 31  1  0
  7 32  1  0
 11 33  1  0
 13 34  1  0
 15 35  1  0
 15 36  1  0
 15 37  1  0
 16 38  1  0
 17 39  1  0
 18 40  1  0
M  END
