
     RDKit          3D

 53 54  0  0  0  0  0  0  0  0999 V2000
   -2.1020   -4.0180   11.4150 C   0  0  0  0  0  0  0  0  0  0  0  0
   -2.3350   -3.6400   12.8660 C   0  0  0  0  0  0  0  0  0  0  0  0
   -3.6900   -3.9330   13.2400 O   0  0  0  0  0  0  0  0  0  0  0  0
   -4.3070   -2.9810   13.9840 C   0  0  0  0  0  0  0  0  0  0  0  0
   -4.1650   -2.7920   15.1810 O   0  0  0  0  0  0  0  0  0  0  0  0
   -5.2610   -2.2320   13.1450 C   0  0  0  0  0  0  0  0  0  0  0  0
   -4.9310   -1.0860   12.5090 C   0  0  0  0  0  0  0  0  0  0  0  0
   -5.8940   -0.4190   11.7590 N   0  0  0  0  0  0  0  0  0  0  0  0
   -7.2390   -0.7520   11.7450 C   0  0  0  0  0  0  0  0  0  0  0  0
   -7.6450   -1.8960   12.3420 C   0  0  0  0  0  0  0  0  0  0  0  0
   -6.6660   -2.8200   13.0650 C   0  0  0  0  0  0  0  0  0  0  0  0
   -6.6330   -4.2060   12.4050 C   0  0  0  0  0  0  0  0  0  0  0  0
   -6.0740   -4.3420   11.1150 C   0  0  0  0  0  0  0  0  0  0  0  0
   -6.0110   -5.5810   10.4780 C   0  0  0  0  0  0  0  0  0  0  0  0
   -6.5030   -6.7150   11.1160 C   0  0  0  0  0  0  0  0  0  0  0  0
   -7.0610   -6.6060   12.3890 C   0  0  0  0  0  0  0  0  0  0  0  0
   -7.1270   -5.3640   13.0320 C   0  0  0  0  0  0  0  0  0  0  0  0
   -7.8360   -5.3430   14.6060 Cl  0  0  0  0  0  0  0  0  0  0  0  0
   -9.0570   -2.3220   12.3910 C   0  0  0  0  0  0  0  0  0  0  0  0
   -9.7590   -2.4550   11.4020 O   0  0  0  0  0  0  0  0  0  0  0  0
   -9.4480   -2.4690   13.6810 O   0  0  0  0  0  0  0  0  0  0  0  0
   -9.7830   -1.2380   14.3230 C   0  0  0  0  0  0  0  0  0  0  0  0
   -8.1550    0.2450   11.0850 C   0  0  0  0  0  0  0  0  0  0  0  0
   -3.5700   -0.4210   12.5990 C   0  0  0  0  0  0  0  0  0  0  0  0
   -3.5180    0.3570   13.8060 O   0  0  0  0  0  0  0  0  0  0  0  0
   -2.2800    0.1700   14.4930 C   0  0  0  0  0  0  0  0  0  0  0  0
   -2.2850    1.0230   15.7670 C   0  0  0  0  0  0  0  0  0  0  0  0
   -2.8250    0.3200   16.9290 N   0  0  0  0  0  0  0  0  0  0  0  0
   -1.5253   -4.9535   11.3679 H   0  0  0  0  0  0  0  0  0  0  0  0
   -3.0704   -4.1585   10.9126 H   0  0  0  0  0  0  0  0  0  0  0  0
   -1.5413   -3.2160   10.9126 H   0  0  0  0  0  0  0  0  0  0  0  0
   -1.6486   -4.2135   13.5063 H   0  0  0  0  0  0  0  0  0  0  0  0
   -2.1514   -2.5627   12.9917 H   0  0  0  0  0  0  0  0  0  0  0  0
   -5.5876    0.3734   11.1766 H   0  0  0  0  0  0  0  0  0  0  0  0
   -7.0324   -2.9262   14.0967 H   0  0  0  0  0  0  0  0  0  0  0  0
   -5.6802   -3.4521   10.6022 H   0  0  0  0  0  0  0  0  0  0  0  0
   -5.5728   -5.6615    9.4723 H   0  0  0  0  0  0  0  0  0  0  0  0
   -6.4520   -7.6944   10.6178 H   0  0  0  0  0  0  0  0  0  0  0  0
   -7.4524   -7.5026   12.8920 H   0  0  0  0  0  0  0  0  0  0  0  0
   -9.7466   -1.3718   15.4142 H   0  0  0  0  0  0  0  0  0  0  0  0
   -9.0636   -0.4612   14.0246 H   0  0  0  0  0  0  0  0  0  0  0  0
  -10.7968   -0.9329   14.0246 H   0  0  0  0  0  0  0  0  0  0  0  0
   -8.6854    0.8223   11.8566 H   0  0  0  0  0  0  0  0  0  0  0  0
   -7.5629    0.9280   10.4582 H   0  0  0  0  0  0  0  0  0  0  0  0
   -8.8856   -0.2873   10.4582 H   0  0  0  0  0  0  0  0  0  0  0  0
   -2.7830   -1.1892   12.6192 H   0  0  0  0  0  0  0  0  0  0  0  0
   -3.4114    0.2292   11.7260 H   0  0  0  0  0  0  0  0  0  0  0  0
   -2.1621   -0.8907   14.7593 H   0  0  0  0  0  0  0  0  0  0  0  0
   -1.4446    0.4733   13.8448 H   0  0  0  0  0  0  0  0  0  0  0  0
   -1.2508    1.3240   15.9901 H   0  0  0  0  0  0  0  0  0  0  0  0
   -2.9360    1.8892   15.5776 H   0  0  0  0  0  0  0  0  0  0  0  0
   -2.4815    0.7671   17.7910 H   0  0  0  0  0  0  0  0  0  0  0  0
   -3.8540    0.3610   16.9075 H   0  0  0  0  0  0  0  0  0  0  0  0
  1  2  1  0
  2  3  1  0
  3  4  1  0
  4  5  2  0
  4  6  1  0
  6  7  2  0
  7  8  1  0
  8  9  1  0
  9 10  2  0
 10 11  1  0
 11 12  1  0
 12 13  2  0
 13 14  1  0
 14 15  2  0
 15 16  1  0
 16 17  2  0
 17 18  1  0
 10 19  1  0
 19 20  2  0
 19 21  1  0
 21 22  1  0
  9 23  1  0
  7 24  1  0
 24 25  1  0
 25 26  1  0
 26 27  1  0
 27 28  1  0
 11  6  1  0
 17 12  1  0
  1 29  1  0
  1 30  1  0
  1 31  1  0
  2 32  1  0
  2 33  1  0
  8 34  1  0
 11 35  1  0
 13 36  1  0
 14 37  1  0
 15 38  1  0
 16 39  1  0
 22 40  1  0
 22 41  1  0
 22 42  1  0
 23 43  1  0
 23 44  1  0
 23 45  1  0
 24 46  1  0
 24 47  1  0
 26 48  1  0
 26 49  1  0
 27 50  1  0
 27 51  1  0
 28 52  1  0
 28 53  1  0
M  END
