
     RDKit          3D

 65 67  0  0  0  0  0  0  0  0999 V2000
 -129.2010   52.5850   34.3610 C   0  0  0  0  0  0  0  0  0  0  0  0
 -128.1870   53.6480   33.9680 C   0  0  0  0  0  0  0  0  0  0  0  0
 -127.3650   54.1700   35.1550 C   0  0  2  0  0  0  0  0  0  0  0  0
 -127.1610   55.6820   35.1170 C   0  0  0  0  0  0  0  0  0  0  0  0
 -126.0070   53.4920   35.1850 C   0  0  0  0  0  0  0  0  0  0  0  0
 -125.2200   53.4510   34.2500 O   0  0  0  0  0  0  0  0  0  0  0  0
 -125.7980   52.9360   36.4110 O   0  0  0  0  0  0  0  0  0  0  0  0
 -126.5230   51.7160   36.7040 C   0  0  1  0  0  0  0  0  0  0  0  0
 -125.9600   50.6130   35.7880 C   0  0  0  0  0  0  0  0  0  0  0  0
 -125.8750   49.2360   36.4440 C   0  0  2  0  0  0  0  0  0  0  0  0
 -125.1470   49.3630   37.7520 C   0  0  0  0  0  0  0  0  0  0  0  0
 -125.3990   50.3860   38.5880 C   0  0  0  0  0  0  0  0  0  0  0  0
 -126.4690   51.4140   38.2410 C   0  0  1  0  0  0  0  0  0  0  0  0
 -126.3880   52.7040   39.1270 C   0  0  2  0  0  0  0  0  0  0  0  0
 -126.1810   52.3590   40.6310 C   0  0  2  0  0  0  0  0  0  0  0  0
 -125.0720   51.3560   40.8040 C   0  0  0  0  0  0  0  0  0  0  0  0
 -124.7220   50.4730   39.8620 C   0  0  0  0  0  0  0  0  0  0  0  0
 -127.4330   51.8430   41.3460 C   0  0  0  0  0  0  0  0  0  0  0  0
 -127.5920   53.6500   38.8800 C   0  0  0  0  0  0  0  0  0  0  0  0
 -127.2950   55.1110   39.2360 C   0  0  0  0  0  0  0  0  0  0  0  0
 -128.0840   55.6230   40.4510 C   0  0  2  0  0  0  0  0  0  0  0  0
 -129.3360   54.7980   40.7430 C   0  0  0  0  0  0  0  0  0  0  0  0
 -130.1630   55.4420   41.8580 C   0  0  2  0  0  0  0  0  0  0  0  0
 -129.6990   56.8420   42.2200 C   0  0  0  0  0  0  0  0  0  0  0  0
 -129.3220   57.6160   40.9940 C   0  0  0  0  0  0  0  0  0  0  0  0
 -129.7040   58.7620   40.7910 O   0  0  0  0  0  0  0  0  0  0  0  0
 -128.4890   56.9740   40.1380 O   0  0  0  0  0  0  0  0  0  0  0  0
 -130.0630   54.6120   43.0170 O   0  0  0  0  0  0  0  0  0  0  0  0
 -125.1750   48.2470   35.5110 C   0  0  0  0  0  0  0  0  0  0  0  0
 -129.2605   52.5226   35.4576 H   0  0  0  0  0  0  0  0  0  0  0  0
 -130.1879   52.8517   33.9548 H   0  0  0  0  0  0  0  0  0  0  0  0
 -128.8881   51.6118   33.9548 H   0  0  0  0  0  0  0  0  0  0  0  0
 -127.4969   53.2160   33.2283 H   0  0  0  0  0  0  0  0  0  0  0  0
 -128.7497   54.5009   33.5606 H   0  0  0  0  0  0  0  0  0  0  0  0
 -127.9395   53.9320   36.0624 H   0  0  0  0  0  0  0  0  0  0  0  0
 -127.1085   56.0708   36.1446 H   0  0  0  0  0  0  0  0  0  0  0  0
 -126.2236   55.9124   34.5895 H   0  0  0  0  0  0  0  0  0  0  0  0
 -128.0038   56.1526   34.5895 H   0  0  0  0  0  0  0  0  0  0  0  0
 -127.5979   51.7958   36.4846 H   0  0  0  0  0  0  0  0  0  0  0  0
 -126.6096   50.5342   34.9038 H   0  0  0  0  0  0  0  0  0  0  0  0
 -124.9303   50.9068   35.5361 H   0  0  0  0  0  0  0  0  0  0  0  0
 -126.8865   48.8490   36.6366 H   0  0  0  0  0  0  0  0  0  0  0  0
 -124.3968   48.6081   38.0301 H   0  0  0  0  0  0  0  0  0  0  0  0
 -127.4364   50.9551   38.4932 H   0  0  0  0  0  0  0  0  0  0  0  0
 -125.4935   53.2637   38.8163 H   0  0  0  0  0  0  0  0  0  0  0  0
 -125.9188   53.3177   41.1022 H   0  0  0  0  0  0  0  0  0  0  0  0
 -124.5201   51.3487   41.7555 H   0  0  0  0  0  0  0  0  0  0  0  0
 -123.8867   49.7866   40.0649 H   0  0  0  0  0  0  0  0  0  0  0  0
 -127.2851   51.9040   42.4343 H   0  0  0  0  0  0  0  0  0  0  0  0
 -128.2989   52.4576   41.0587 H   0  0  0  0  0  0  0  0  0  0  0  0
 -127.6144   50.7968   41.0587 H   0  0  0  0  0  0  0  0  0  0  0  0
 -127.8648   53.5980   37.8156 H   0  0  0  0  0  0  0  0  0  0  0  0
 -128.4108   53.3143   39.5333 H   0  0  0  0  0  0  0  0  0  0  0  0
 -126.2210   55.2037   39.4551 H   0  0  0  0  0  0  0  0  0  0  0  0
 -127.6014   55.7209   38.3733 H   0  0  0  0  0  0  0  0  0  0  0  0
 -127.4434   55.5555   41.3426 H   0  0  0  0  0  0  0  0  0  0  0  0
 -129.9474   54.7352   39.8307 H   0  0  0  0  0  0  0  0  0  0  0  0
 -129.0284   53.7930   41.0676 H   0  0  0  0  0  0  0  0  0  0  0  0
 -131.1977   55.5321   41.4956 H   0  0  0  0  0  0  0  0  0  0  0  0
 -130.5130   57.3673   42.7410 H   0  0  0  0  0  0  0  0  0  0  0  0
 -128.8148   56.7614   42.8694 H   0  0  0  0  0  0  0  0  0  0  0  0
 -130.1305   55.1719   43.8307 H   0  0  0  0  0  0  0  0  0  0  0  0
 -124.6416   47.4934   36.1090 H   0  0  0  0  0  0  0  0  0  0  0  0
 -125.9230   47.7492   34.8764 H   0  0  0  0  0  0  0  0  0  0  0  0
 -124.4568   48.7870   34.8764 H   0  0  0  0  0  0  0  0  0  0  0  0
  1  2  1  0
  2  3  1  0
  3  4  1  0
  3  5  1  0
  5  6  2  0
  5  7  1  0
  7  8  1  0
  8  9  1  0
  9 10  1  0
 10 11  1  0
 11 12  2  0
 12 13  1  0
 13 14  1  0
 14 15  1  0
 15 16  1  0
 16 17  2  0
 15 18  1  0
 14 19  1  0
 19 20  1  0
 20 21  1  0
 21 22  1  0
 22 23  1  0
 23 24  1  0
 24 25  1  0
 25 26  2  0
 25 27  1  0
 23 28  1  0
 10 29  1  0
 13  8  1  0
 17 12  1  0
 27 21  1  0
  1 30  1  0
  1 31  1  0
  1 32  1  0
  2 33  1  0
  2 34  1  0
  3 35  1  1
  4 36  1  0
  4 37  1  0
  4 38  1  0
  8 39  1  6
  9 40  1  0
  9 41  1  0
 10 42  1  1
 11 43  1  0
 13 44  1  1
 14 45  1  6
 15 46  1  1
 16 47  1  0
 17 48  1  0
 18 49  1  0
 18 50  1  0
 18 51  1  0
 19 52  1  0
 19 53  1  0
 20 54  1  0
 20 55  1  0
 21 56  1  1
 22 57  1  0
 22 58  1  0
 23 59  1  6
 24 60  1  0
 24 61  1  0
 28 62  1  0
 29 63  1  0
 29 64  1  0
 29 65  1  0
M  END
