
     RDKit          3D

 67 69  0  0  0  0  0  0  0  0999 V2000
   -0.5740   65.1570   26.6140 C   0  0  0  0  0  0  0  0  0  0  0  0
   -2.0490   64.9130   26.4070 C   0  0  0  0  0  0  0  0  0  0  0  0
   -2.4690   64.2910   25.0830 C   0  0  2  0  0  0  0  0  0  0  0  0
   -2.7460   65.7360   25.3290 C   0  0  1  0  0  0  0  0  0  0  0  0
   -4.2400   65.9560   25.2550 C   0  0  2  0  0  0  0  0  0  0  0  0
   -4.7990   64.6010   25.0470 N   0  0  0  0  0  0  0  0  0  0  0  0
   -3.7660   63.5810   24.8830 C   0  0  0  0  0  0  0  0  0  0  0  0
   -6.1160   64.3310   25.3510 C   0  0  0  0  0  0  0  0  0  0  0  0
   -6.8690   65.2330   25.7450 O   0  0  0  0  0  0  0  0  0  0  0  0
   -6.6690   62.8960   25.1360 C   0  0  2  0  0  0  0  0  0  0  0  0
   -7.2340   62.6640   23.6970 C   0  0  0  0  0  0  0  0  0  0  0  0
   -8.5430   61.8480   23.7950 C   0  0  0  0  0  0  0  0  0  0  0  0
   -7.5430   63.9750   22.9490 C   0  0  0  0  0  0  0  0  0  0  0  0
   -6.2380   61.8470   22.8500 C   0  0  0  0  0  0  0  0  0  0  0  0
   -7.6950   62.7150   26.1680 N   0  0  0  0  0  0  0  0  0  0  0  0
   -7.3340   62.3680   27.4690 C   0  0  0  0  0  0  0  0  0  0  0  0
   -6.1850   62.0200   27.7450 O   0  0  0  0  0  0  0  0  0  0  0  0
   -8.4850   62.4330   28.5010 C   0  0  0  0  0  0  0  0  0  0  0  0
   -8.8420   63.7230   28.7770 F   0  0  0  0  0  0  0  0  0  0  0  0
   -8.1570   61.8630   29.6910 F   0  0  0  0  0  0  0  0  0  0  0  0
   -9.6120   61.8120   28.0590 F   0  0  0  0  0  0  0  0  0  0  0  0
   -4.6480   66.9370   24.1160 C   0  0  0  0  0  0  0  0  0  0  0  0
   -5.1300   66.5740   23.0450 O   0  0  0  0  0  0  0  0  0  0  0  0
   -4.3310   68.2590   24.3460 N   0  0  0  0  0  0  0  0  0  0  0  0
   -4.4770   69.2730   23.3070 C   0  0  1  0  0  0  0  0  0  0  0  0
   -5.6100   70.2300   23.7020 C   0  0  0  0  0  0  0  0  0  0  0  0
   -5.1470   71.6440   24.0640 C   0  0  2  0  0  0  0  0  0  0  0  0
   -5.1460   71.9900   25.5570 C   0  0  0  0  0  0  0  0  0  0  0  0
   -5.3560   73.4930   25.5710 C   0  0  0  0  0  0  0  0  0  0  0  0
   -6.1770   73.7170   24.4230 N   0  0  0  0  0  0  0  0  0  0  0  0
   -6.0910   72.6940   23.5040 C   0  0  0  0  0  0  0  0  0  0  0  0
   -6.6480   72.6720   22.4210 O   0  0  0  0  0  0  0  0  0  0  0  0
   -3.1980   69.9930   23.1100 C   0  0  0  0  0  0  0  0  0  0  0  0
   -2.1800   70.5280   22.9460 N   0  0  0  0  0  0  0  0  0  0  0  0
   -2.7740   64.5580   27.6830 C   0  0  0  0  0  0  0  0  0  0  0  0
   -0.3560   65.1931   27.6916 H   0  0  0  0  0  0  0  0  0  0  0  0
    0.0011   64.3418   26.1506 H   0  0  0  0  0  0  0  0  0  0  0  0
   -0.2921   66.1140   26.1506 H   0  0  0  0  0  0  0  0  0  0  0  0
   -1.8953   63.6271   24.4196 H   0  0  0  0  0  0  0  0  0  0  0  0
   -2.4910   66.7422   24.9650 H   0  0  0  0  0  0  0  0  0  0  0  0
   -4.6265   66.4338   26.1673 H   0  0  0  0  0  0  0  0  0  0  0  0
   -3.8885   62.7858   25.6331 H   0  0  0  0  0  0  0  0  0  0  0  0
   -3.8201   63.1008   23.8948 H   0  0  0  0  0  0  0  0  0  0  0  0
   -5.8643   62.1514   25.2254 H   0  0  0  0  0  0  0  0  0  0  0  0
   -8.7977   61.6892   24.8533 H   0  0  0  0  0  0  0  0  0  0  0  0
   -9.3566   62.3992   23.3007 H   0  0  0  0  0  0  0  0  0  0  0  0
   -8.4063   60.8748   23.3007 H   0  0  0  0  0  0  0  0  0  0  0  0
   -7.7320   64.7771   23.6776 H   0  0  0  0  0  0  0  0  0  0  0  0
   -6.6846   64.2480   22.3177 H   0  0  0  0  0  0  0  0  0  0  0  0
   -8.4330   63.8359   22.3177 H   0  0  0  0  0  0  0  0  0  0  0  0
   -5.5606   61.2913   23.5151 H   0  0  0  0  0  0  0  0  0  0  0  0
   -6.7910   61.1390   22.2153 H   0  0  0  0  0  0  0  0  0  0  0  0
   -5.6518   62.5278   22.2153 H   0  0  0  0  0  0  0  0  0  0  0  0
   -8.6887   62.8451   25.9301 H   0  0  0  0  0  0  0  0  0  0  0  0
   -3.9825   68.5377   25.2743 H   0  0  0  0  0  0  0  0  0  0  0  0
   -4.7353   68.7979   22.3491 H   0  0  0  0  0  0  0  0  0  0  0  0
   -6.3092   70.3031   22.8559 H   0  0  0  0  0  0  0  0  0  0  0  0
   -6.0738   69.8105   24.6069 H   0  0  0  0  0  0  0  0  0  0  0  0
   -4.1256   71.6511   23.6556 H   0  0  0  0  0  0  0  0  0  0  0  0
   -5.9637   71.4736   26.0811 H   0  0  0  0  0  0  0  0  0  0  0  0
   -4.2224   71.6811   26.0683 H   0  0  0  0  0  0  0  0  0  0  0  0
   -5.8683   73.8115   26.4909 H   0  0  0  0  0  0  0  0  0  0  0  0
   -4.4144   74.0611   25.5463 H   0  0  0  0  0  0  0  0  0  0  0  0
   -6.7678   74.5511   24.2965 H   0  0  0  0  0  0  0  0  0  0  0  0
   -2.1629   64.8572   28.5473 H   0  0  0  0  0  0  0  0  0  0  0  0
   -3.7386   65.0857   27.7156 H   0  0  0  0  0  0  0  0  0  0  0  0
   -2.9487   63.4724   27.7156 H   0  0  0  0  0  0  0  0  0  0  0  0
  1  2  1  0
  2  3  1  0
  3  4  1  0
  4  5  1  0
  5  6  1  0
  6  7  1  0
  6  8  1  0
  8  9  2  0
  8 10  1  0
 10 11  1  0
 11 12  1  0
 11 13  1  0
 11 14  1  0
 10 15  1  0
 15 16  1  0
 16 17  2  0
 16 18  1  0
 18 19  1  0
 18 20  1  0
 18 21  1  0
  5 22  1  0
 22 23  2  0
 22 24  1  0
 24 25  1  0
 25 26  1  0
 26 27  1  0
 27 28  1  0
 28 29  1  0
 29 30  1  0
 30 31  1  0
 31 32  2  0
 25 33  1  0
 33 34  3  0
  2 35  1  0
  4  2  1  0
  7  3  1  0
 31 27  1  0
  1 36  1  0
  1 37  1  0
  1 38  1  0
  3 39  1  6
  4 40  1  6
  5 41  1  1
  7 42  1  0
  7 43  1  0
 10 44  1  1
 12 45  1  0
 12 46  1  0
 12 47  1  0
 13 48  1  0
 13 49  1  0
 13 50  1  0
 14 51  1  0
 14 52  1  0
 14 53  1  0
 15 54  1  0
 24 55  1  0
 25 56  1  6
 26 57  1  0
 26 58  1  0
 27 59  1  6
 28 60  1  0
 28 61  1  0
 29 62  1  0
 29 63  1  0
 30 64  1  0
 35 65  1  0
 35 66  1  0
 35 67  1  0
M  END
