
     RDKit          3D

 65 67  0  0  0  0  0  0  0  0999 V2000
   -2.0480    2.9720   17.8270 C   0  0  0  0  0  0  0  0  0  0  0  0
   -2.5060    1.5730   17.4440 C   0  0  0  0  0  0  0  0  0  0  0  0
   -1.8580    1.0570   16.1510 C   0  0  2  0  0  0  0  0  0  0  0  0
   -0.6160    1.8490   15.7520 C   0  0  0  0  0  0  0  0  0  0  0  0
   -2.8600    1.1100   15.0110 C   0  0  0  0  0  0  0  0  0  0  0  0
   -3.5220    2.0890   14.7000 O   0  0  0  0  0  0  0  0  0  0  0  0
   -2.9090   -0.1000   14.3860 O   0  0  0  0  0  0  0  0  0  0  0  0
   -2.9230   -0.0820   12.9370 C   0  0  1  0  0  0  0  0  0  0  0  0
   -1.8930    0.9680   12.4770 C   0  0  0  0  0  0  0  0  0  0  0  0
   -1.1230    0.5810   11.2160 C   0  0  2  0  0  0  0  0  0  0  0  0
   -0.5440   -0.7940   11.4000 C   0  0  0  0  0  0  0  0  0  0  0  0
   -1.2650   -1.7800   11.9610 C   0  0  0  0  0  0  0  0  0  0  0  0
   -2.7100   -1.5300   12.3780 C   0  0  1  0  0  0  0  0  0  0  0  0
   -3.2770   -2.6500   13.3180 C   0  0  2  0  0  0  0  0  0  0  0  0
   -2.9090   -4.0730   12.8050 C   0  0  2  0  0  0  0  0  0  0  0  0
   -1.4460   -4.1610   12.4660 C   0  0  0  0  0  0  0  0  0  0  0  0
   -0.7100   -3.1080   12.0940 C   0  0  0  0  0  0  0  0  0  0  0  0
   -3.7280   -4.5500   11.6030 C   0  0  0  0  0  0  0  0  0  0  0  0
   -4.7950   -2.4700   13.5790 C   0  0  0  0  0  0  0  0  0  0  0  0
   -5.5460   -1.8700   12.3850 C   0  0  0  0  0  0  0  0  0  0  0  0
   -7.0140   -1.5320   12.6860 C   0  0  2  0  0  0  0  0  0  0  0  0
   -7.9340   -1.7370   11.4850 C   0  0  0  0  0  0  0  0  0  0  0  0
   -9.3480   -1.2390   11.7920 C   0  0  2  0  0  0  0  0  0  0  0  0
   -9.4390   -0.4430   13.0820 C   0  0  0  0  0  0  0  0  0  0  0  0
   -8.2520    0.4580   13.2410 C   0  0  0  0  0  0  0  0  0  0  0  0
   -8.3530    1.6370   13.5560 O   0  0  0  0  0  0  0  0  0  0  0  0
   -7.0470   -0.1350   13.0550 O   0  0  0  0  0  0  0  0  0  0  0  0
  -10.2040   -2.3780   11.8950 O   0  0  0  0  0  0  0  0  0  0  0  0
   -0.0320    1.6110   10.9230 C   0  0  0  0  0  0  0  0  0  0  0  0
   -2.0188    3.0611   18.9230 H   0  0  0  0  0  0  0  0  0  0  0  0
   -1.0434    3.1539   17.4175 H   0  0  0  0  0  0  0  0  0  0  0  0
   -2.7505    3.7128   17.4175 H   0  0  0  0  0  0  0  0  0  0  0  0
   -2.2490    0.8847   18.2626 H   0  0  0  0  0  0  0  0  0  0  0  0
   -3.5910    1.6207   17.2694 H   0  0  0  0  0  0  0  0  0  0  0  0
   -1.5460    0.0209   16.3490 H   0  0  0  0  0  0  0  0  0  0  0  0
   -0.0890    2.1851   16.6572 H   0  0  0  0  0  0  0  0  0  0  0  0
    0.0510    1.2091   15.1556 H   0  0  0  0  0  0  0  0  0  0  0  0
   -0.9148    2.7237   15.1556 H   0  0  0  0  0  0  0  0  0  0  0  0
   -3.8962    0.2233   12.5250 H   0  0  0  0  0  0  0  0  0  0  0  0
   -2.4256    1.9102   12.2802 H   0  0  0  0  0  0  0  0  0  0  0  0
   -1.1514    1.0575   13.2845 H   0  0  0  0  0  0  0  0  0  0  0  0
   -1.8028    0.5668   10.3513 H   0  0  0  0  0  0  0  0  0  0  0  0
    0.4858   -0.9964   11.0704 H   0  0  0  0  0  0  0  0  0  0  0  0
   -3.3147   -1.5919   11.4612 H   0  0  0  0  0  0  0  0  0  0  0  0
   -2.7868   -2.5421   14.2968 H   0  0  0  0  0  0  0  0  0  0  0  0
   -3.1563   -4.7419   13.6425 H   0  0  0  0  0  0  0  0  0  0  0  0
   -0.9554   -5.1436   12.5273 H   0  0  0  0  0  0  0  0  0  0  0  0
    0.3587   -3.2584   11.8811 H   0  0  0  0  0  0  0  0  0  0  0  0
   -4.6279   -5.0741   11.9572 H   0  0  0  0  0  0  0  0  0  0  0  0
   -4.0243   -3.6832   10.9940 H   0  0  0  0  0  0  0  0  0  0  0  0
   -3.1203   -5.2354   10.9940 H   0  0  0  0  0  0  0  0  0  0  0  0
   -5.2298   -3.4545   13.8066 H   0  0  0  0  0  0  0  0  0  0  0  0
   -4.9013   -1.7673   14.4186 H   0  0  0  0  0  0  0  0  0  0  0  0
   -5.0323   -0.9463   12.0801 H   0  0  0  0  0  0  0  0  0  0  0  0
   -5.5475   -2.6309   11.5906 H   0  0  0  0  0  0  0  0  0  0  0  0
   -7.3749   -2.2012   13.4809 H   0  0  0  0  0  0  0  0  0  0  0  0
   -7.5341   -1.1795   10.6252 H   0  0  0  0  0  0  0  0  0  0  0  0
   -7.9808   -2.8119   11.2563 H   0  0  0  0  0  0  0  0  0  0  0  0
   -9.6472   -0.5628   10.9776 H   0  0  0  0  0  0  0  0  0  0  0  0
  -10.3541    0.1671   13.0646 H   0  0  0  0  0  0  0  0  0  0  0  0
   -9.4613   -1.1464   13.9274 H   0  0  0  0  0  0  0  0  0  0  0  0
  -10.3613   -2.5873   12.8497 H   0  0  0  0  0  0  0  0  0  0  0  0
    0.3742    1.9945   11.8706 H   0  0  0  0  0  0  0  0  0  0  0  0
    0.7740    1.1367   10.3438 H   0  0  0  0  0  0  0  0  0  0  0  0
   -0.4592    2.4429   10.3438 H   0  0  0  0  0  0  0  0  0  0  0  0
  1  2  1  0
  2  3  1  0
  3  4  1  0
  3  5  1  0
  5  6  2  0
  5  7  1  0
  7  8  1  0
  8  9  1  0
  9 10  1  0
 10 11  1  0
 11 12  2  0
 12 13  1  0
 13 14  1  0
 14 15  1  0
 15 16  1  0
 16 17  2  0
 15 18  1  0
 14 19  1  0
 19 20  1  0
 20 21  1  0
 21 22  1  0
 22 23  1  0
 23 24  1  0
 24 25  1  0
 25 26  2  0
 25 27  1  0
 23 28  1  0
 10 29  1  0
 13  8  1  0
 17 12  1  0
 27 21  1  0
  1 30  1  0
  1 31  1  0
  1 32  1  0
  2 33  1  0
  2 34  1  0
  3 35  1  1
  4 36  1  0
  4 37  1  0
  4 38  1  0
  8 39  1  1
  9 40  1  0
  9 41  1  0
 10 42  1  6
 11 43  1  0
 13 44  1  6
 14 45  1  1
 15 46  1  1
 16 47  1  0
 17 48  1  0
 18 49  1  0
 18 50  1  0
 18 51  1  0
 19 52  1  0
 19 53  1  0
 20 54  1  0
 20 55  1  0
 21 56  1  1
 22 57  1  0
 22 58  1  0
 23 59  1  6
 24 60  1  0
 24 61  1  0
 28 62  1  0
 29 63  1  0
 29 64  1  0
 29 65  1  0
M  END
