
     RDKit          3D

 30 31  0  0  0  0  0  0  0  0999 V2000
 -115.1160   65.6950   28.2690 C   0  0  0  0  0  0  0  0  0  0  0  0
 -115.5790   66.9640   28.2450 N   0  0  0  0  0  0  0  0  0  0  0  0
 -115.3020   67.7690   29.2970 C   0  0  0  0  0  0  0  0  0  0  0  0
 -114.5220   67.2570   30.3460 C   0  0  0  0  0  0  0  0  0  0  0  0
 -114.1140   65.9380   30.2270 C   0  0  0  0  0  0  0  0  0  0  0  0
 -114.3700   65.0910   29.2180 N   0  0  0  0  0  0  0  0  0  0  0  0
 -113.3860   65.6950   31.3590 N   0  0  0  0  0  0  0  0  0  0  0  0
 -113.3710   66.8440   32.1020 C   0  0  0  0  0  0  0  0  0  0  0  0
 -114.0420   67.8140   31.5160 N   0  0  0  0  0  0  0  0  0  0  0  0
 -112.7580   64.4420   31.7040 C   0  0  0  0  0  0  0  0  0  0  0  0
 -113.7470   63.4380   32.2890 C   0  0  0  0  0  0  0  0  0  0  0  0
 -113.8980   62.3100   31.4270 O   0  0  0  0  0  0  0  0  0  0  0  0
 -112.7180   61.4940   31.3720 C   0  0  0  0  0  0  0  0  0  0  0  0
 -112.3470   61.1430   29.6560 P   0  0  0  0  0  0  0  0  0  0  0  0
 -112.8300   59.8610   29.0590 O   0  0  0  0  0  0  0  0  0  0  0  0
 -112.8930   62.4030   28.8230 O   0  0  0  0  0  0  0  0  0  0  0  0
 -110.7650   61.3340   29.4650 O   0  0  0  0  0  0  0  0  0  0  0  0
 -115.7850   69.0720   29.2740 N   0  0  0  0  0  0  0  0  0  0  0  0
 -115.3817   65.0727   27.4018 H   0  0  0  0  0  0  0  0  0  0  0  0
 -112.8605   66.9452   33.0711 H   0  0  0  0  0  0  0  0  0  0  0  0
 -112.3103   64.0096   30.7970 H   0  0  0  0  0  0  0  0  0  0  0  0
 -111.9962   64.6481   32.4702 H   0  0  0  0  0  0  0  0  0  0  0  0
 -113.3775   63.0967   33.2673 H   0  0  0  0  0  0  0  0  0  0  0  0
 -114.7246   63.9304   32.3979 H   0  0  0  0  0  0  0  0  0  0  0  0
 -111.8746   62.0303   31.8314 H   0  0  0  0  0  0  0  0  0  0  0  0
 -112.8840   60.5551   31.9206 H   0  0  0  0  0  0  0  0  0  0  0  0
 -113.1977   63.1061   29.4499 H   0  0  0  0  0  0  0  0  0  0  0  0
 -110.3294   61.3866   30.3525 H   0  0  0  0  0  0  0  0  0  0  0  0
 -115.5899   69.7075   30.0607 H   0  0  0  0  0  0  0  0  0  0  0  0
 -116.3380   69.4021   28.4702 H   0  0  0  0  0  0  0  0  0  0  0  0
  1  2  2  0
  2  3  1  0
  3  4  2  0
  4  5  1  0
  5  6  2  0
  5  7  1  0
  7  8  1  0
  8  9  2  0
  7 10  1  0
 10 11  1  0
 11 12  1  0
 12 13  1  0
 13 14  1  0
 14 15  2  0
 14 16  1  0
 14 17  1  0
  3 18  1  0
  6  1  1  0
  9  4  1  0
  1 19  1  0
  8 20  1  0
 10 21  1  0
 10 22  1  0
 11 23  1  0
 11 24  1  0
 13 25  1  0
 13 26  1  0
 16 27  1  0
 17 28  1  0
 18 29  1  0
 18 30  1  0
M  END
