
     RDKit          3D

 56 58  0  0  0  0  0  0  0  0999 V2000
 -119.6780   49.5220   42.7720 C   0  0  0  0  0  0  0  0  0  0  0  0
 -120.7970   50.3620   42.1680 C   0  0  0  0  0  0  0  0  0  0  0  0
 -120.4880   50.8890   40.8270 N   0  0  0  0  0  0  0  0  0  0  0  0
 -119.5600   52.0280   40.8400 C   0  0  0  0  0  0  0  0  0  0  0  0
 -120.1730   53.2170   41.5710 C   0  0  0  0  0  0  0  0  0  0  0  0
 -120.0290   49.8060   39.9300 C   0  0  0  0  0  0  0  0  0  0  0  0
 -121.0860   49.1730   39.0010 C   0  0  0  0  0  0  0  0  0  0  0  0
 -122.2860   49.9800   38.9040 N   0  0  0  0  0  0  0  0  0  0  0  0
 -123.4800   49.5580   39.4470 C   0  0  0  0  0  0  0  0  0  0  0  0
 -123.6060   48.4620   39.9860 O   0  0  0  0  0  0  0  0  0  0  0  0
 -124.5590   50.5510   39.3960 C   0  0  0  0  0  0  0  0  0  0  0  0
 -125.6150   50.4940   38.4940 C   0  0  0  0  0  0  0  0  0  0  0  0
 -126.4340   51.5680   38.7260 N   0  0  0  0  0  0  0  0  0  0  0  0
 -125.9350   52.3340   39.7450 C   0  0  0  0  0  0  0  0  0  0  0  0
 -124.7580   51.7480   40.1840 C   0  0  0  0  0  0  0  0  0  0  0  0
 -123.8570   52.2820   41.2460 C   0  0  0  0  0  0  0  0  0  0  0  0
 -126.6790   53.4760   40.1200 C   0  0  0  0  0  0  0  0  0  0  0  0
 -127.7940   53.4320   40.8640 C   0  0  0  0  0  0  0  0  0  0  0  0
 -128.5800   54.6120   41.2540 C   0  0  0  0  0  0  0  0  0  0  0  0
 -129.6440   54.1340   42.0300 C   0  0  0  0  0  0  0  0  0  0  0  0
 -130.6030   54.9650   42.5770 C   0  0  0  0  0  0  0  0  0  0  0  0
 -130.4780   56.3330   42.3260 C   0  0  0  0  0  0  0  0  0  0  0  0
 -129.4150   56.8160   41.5480 C   0  0  0  0  0  0  0  0  0  0  0  0
 -128.4540   55.9660   41.0020 C   0  0  0  0  0  0  0  0  0  0  0  0
 -129.3210   58.1340   41.3240 F   0  0  0  0  0  0  0  0  0  0  0  0
 -129.5750   52.7510   42.1500 N   0  0  0  0  0  0  0  0  0  0  0  0
 -128.4790   52.2310   41.4760 C   0  0  0  0  0  0  0  0  0  0  0  0
 -128.1720   51.0580   41.4190 O   0  0  0  0  0  0  0  0  0  0  0  0
 -125.9170   49.5090   37.4210 C   0  0  0  0  0  0  0  0  0  0  0  0
 -119.7375   49.5667   43.8695 H   0  0  0  0  0  0  0  0  0  0  0  0
 -119.7836   48.4782   42.4412 H   0  0  0  0  0  0  0  0  0  0  0  0
 -118.7052   49.9148   42.4412 H   0  0  0  0  0  0  0  0  0  0  0  0
 -121.6993   49.7370   42.0955 H   0  0  0  0  0  0  0  0  0  0  0  0
 -120.9380   51.2302   42.8286 H   0  0  0  0  0  0  0  0  0  0  0  0
 -118.6315   51.7310   41.3496 H   0  0  0  0  0  0  0  0  0  0  0  0
 -119.3491   52.3230   39.8015 H   0  0  0  0  0  0  0  0  0  0  0  0
 -120.0926   53.0610   42.6569 H   0  0  0  0  0  0  0  0  0  0  0  0
 -119.6361   54.1356   41.2918 H   0  0  0  0  0  0  0  0  0  0  0  0
 -121.2327   53.3124   41.2918 H   0  0  0  0  0  0  0  0  0  0  0  0
 -119.2313   50.2172   39.2939 H   0  0  0  0  0  0  0  0  0  0  0  0
 -119.7134   48.9931   40.6006 H   0  0  0  0  0  0  0  0  0  0  0  0
 -120.6525   49.0612   37.9962 H   0  0  0  0  0  0  0  0  0  0  0  0
 -121.3686   48.1989   39.4268 H   0  0  0  0  0  0  0  0  0  0  0  0
 -122.2454   50.8878   38.4191 H   0  0  0  0  0  0  0  0  0  0  0  0
 -127.3010   51.7700   38.2078 H   0  0  0  0  0  0  0  0  0  0  0  0
 -124.2707   52.0368   42.2353 H   0  0  0  0  0  0  0  0  0  0  0  0
 -122.8600   51.8289   41.1430 H   0  0  0  0  0  0  0  0  0  0  0  0
 -123.7758   53.3742   41.1430 H   0  0  0  0  0  0  0  0  0  0  0  0
 -126.3220   54.4598   39.7813 H   0  0  0  0  0  0  0  0  0  0  0  0
 -131.4292   54.5662   43.1839 H   0  0  0  0  0  0  0  0  0  0  0  0
 -131.2164   57.0352   42.7402 H   0  0  0  0  0  0  0  0  0  0  0  0
 -127.6260   56.3580   40.3931 H   0  0  0  0  0  0  0  0  0  0  0  0
 -130.2542   52.1817   42.6749 H   0  0  0  0  0  0  0  0  0  0  0  0
 -126.2107   48.5510   37.8748 H   0  0  0  0  0  0  0  0  0  0  0  0
 -126.7405   49.8871   36.7974 H   0  0  0  0  0  0  0  0  0  0  0  0
 -125.0231   49.3605   36.7974 H   0  0  0  0  0  0  0  0  0  0  0  0
  1  2  1  0
  2  3  1  0
  3  4  1  0
  4  5  1  0
  3  6  1  0
  6  7  1  0
  7  8  1  0
  8  9  1  0
  9 10  2  0
  9 11  1  0
 11 12  2  0
 12 13  1  0
 13 14  1  0
 14 15  2  0
 15 16  1  0
 14 17  1  0
 17 18  2  0
 18 19  1  0
 19 20  1  0
 20 21  2  0
 21 22  1  0
 22 23  2  0
 23 24  1  0
 23 25  1  0
 20 26  1  0
 26 27  1  0
 27 28  2  0
 12 29  1  0
 15 11  1  0
 27 18  1  0
 24 19  2  0
  1 30  1  0
  1 31  1  0
  1 32  1  0
  2 33  1  0
  2 34  1  0
  4 35  1  0
  4 36  1  0
  5 37  1  0
  5 38  1  0
  5 39  1  0
  6 40  1  0
  6 41  1  0
  7 42  1  0
  7 43  1  0
  8 44  1  0
 13 45  1  0
 16 46  1  0
 16 47  1  0
 16 48  1  0
 17 49  1  0
 21 50  1  0
 22 51  1  0
 24 52  1  0
 26 53  1  0
 29 54  1  0
 29 55  1  0
 29 56  1  0
M  END
