
     RDKit          3D

 42 45  0  0  0  0  0  0  0  0999 V2000
 -126.4260   60.5680   34.0980 C   0  0  0  0  0  0  0  0  0  0  0  0
 -126.3130   62.0050   33.5480 C   0  0  2  0  0  0  0  0  0  0  0  0
 -127.2490   62.1110   32.3340 C   0  0  0  0  0  0  0  0  0  0  0  0
 -126.6200   61.5220   31.0770 C   0  0  0  0  0  0  0  0  0  0  0  0
 -125.3500   62.3090   30.8160 C   0  0  2  0  0  0  0  0  0  0  0  0
 -124.8460   62.2670   29.3670 C   0  0  1  0  0  0  0  0  0  0  0  0
 -123.8260   63.3940   29.2070 C   0  0  0  0  0  0  0  0  0  0  0  0
 -123.5820   63.9230   28.1310 O   0  0  0  0  0  0  0  0  0  0  0  0
 -123.2480   63.8130   30.3740 O   0  0  0  0  0  0  0  0  0  0  0  0
 -122.9820   62.7310   31.2620 C   0  0  2  0  0  0  0  0  0  0  0  0
 -124.2450   62.0850   31.8830 C   0  0  1  0  0  0  0  0  0  0  0  0
 -124.8260   62.5340   33.2800 C   0  0  2  0  0  0  0  0  0  0  0  0
 -123.9870   62.1190   34.5170 C   0  0  0  0  0  0  0  0  0  0  0  0
 -122.4890   62.3200   34.4580 C   0  0  0  0  0  0  0  0  0  0  0  0
 -121.9020   61.9200   33.1120 C   0  0  2  0  0  0  0  0  0  0  0  0
 -122.0570   63.0610   32.2620 O   0  0  0  0  0  0  0  0  0  0  0  0
 -122.4310   60.6610   32.6030 O   0  0  0  0  0  0  0  0  0  0  0  0
 -123.8530   60.7220   32.1020 O   0  0  0  0  0  0  0  0  0  0  0  0
 -120.3920   61.7120   33.2530 C   0  0  0  0  0  0  0  0  0  0  0  0
 -124.3390   60.9220   28.8700 C   0  0  0  0  0  0  0  0  0  0  0  0
 -126.4239   60.5951   35.1977 H   0  0  0  0  0  0  0  0  0  0  0  0
 -127.3627   60.1126   33.7442 H   0  0  0  0  0  0  0  0  0  0  0  0
 -125.5720   59.9718   33.7442 H   0  0  0  0  0  0  0  0  0  0  0  0
 -126.6359   62.7020   34.3354 H   0  0  0  0  0  0  0  0  0  0  0  0
 -128.1795   61.5672   32.5541 H   0  0  0  0  0  0  0  0  0  0  0  0
 -127.4465   63.1771   32.1484 H   0  0  0  0  0  0  0  0  0  0  0  0
 -126.3822   60.4596   31.2341 H   0  0  0  0  0  0  0  0  0  0  0  0
 -127.3088   61.5870   30.2219 H   0  0  0  0  0  0  0  0  0  0  0  0
 -125.6580   63.3572   30.9446 H   0  0  0  0  0  0  0  0  0  0  0  0
 -125.7121   62.4211   28.7066 H   0  0  0  0  0  0  0  0  0  0  0  0
 -122.5294   61.9672   30.6125 H   0  0  0  0  0  0  0  0  0  0  0  0
 -124.8013   63.6293   33.1811 H   0  0  0  0  0  0  0  0  0  0  0  0
 -124.3612   62.6968   35.3750 H   0  0  0  0  0  0  0  0  0  0  0  0
 -124.1158   61.0286   34.5835 H   0  0  0  0  0  0  0  0  0  0  0  0
 -122.2679   63.3824   34.6380 H   0  0  0  0  0  0  0  0  0  0  0  0
 -122.0341   61.6775   35.2263 H   0  0  0  0  0  0  0  0  0  0  0  0
 -120.1249   61.6752   34.3195 H   0  0  0  0  0  0  0  0  0  0  0  0
 -120.1055   60.7659   32.7704 H   0  0  0  0  0  0  0  0  0  0  0  0
 -119.8604   62.5454   32.7704 H   0  0  0  0  0  0  0  0  0  0  0  0
 -124.0972   60.2806   29.7303 H   0  0  0  0  0  0  0  0  0  0  0  0
 -125.1170   60.4395   28.2601 H   0  0  0  0  0  0  0  0  0  0  0  0
 -123.4361   61.0731   28.2601 H   0  0  0  0  0  0  0  0  0  0  0  0
  1  2  1  0
  2  3  1  0
  3  4  1  0
  4  5  1  0
  5  6  1  0
  6  7  1  0
  7  8  2  0
  7  9  1  0
  9 10  1  0
 10 11  1  0
 11 12  1  0
 12 13  1  0
 13 14  1  0
 14 15  1  0
 15 16  1  0
 15 17  1  0
 17 18  1  0
 15 19  1  1
  6 20  1  0
 12  2  1  0
 11  5  1  0
 16 10  1  0
 11 18  1  1
  1 21  1  0
  1 22  1  0
  1 23  1  0
  2 24  1  1
  3 25  1  0
  3 26  1  0
  4 27  1  0
  4 28  1  0
  5 29  1  6
  6 30  1  1
 10 31  1  1
 12 32  1  1
 13 33  1  0
 13 34  1  0
 14 35  1  0
 14 36  1  0
 19 37  1  0
 19 38  1  0
 19 39  1  0
 20 40  1  0
 20 41  1  0
 20 42  1  0
M  END
