
     RDKit          3D

 49 50  0  0  0  0  0  0  0  0999 V2000
   -5.4950   -4.1260   11.9510 C   0  0  0  0  0  0  0  0  0  0  0  0
   -6.0130   -3.5000   13.2440 C   0  0  0  0  0  0  0  0  0  0  0  0
   -5.5480   -2.1060   13.4060 N   0  0  0  0  0  0  0  0  0  0  0  0
   -4.0760   -2.0360   13.2960 C   0  0  0  0  0  0  0  0  0  0  0  0
   -3.6260   -0.8170   12.4780 C   0  0  0  0  0  0  0  0  0  0  0  0
   -2.3340   -0.2150   13.0510 C   0  0  0  0  0  0  0  0  0  0  0  0
   -2.1460    1.2580   12.6570 C   0  0  0  0  0  0  0  0  0  0  0  0
   -0.7380    1.5790   12.1610 C   0  0  0  0  0  0  0  0  0  0  0  0
   -2.6030    2.2010   13.6820 N   0  0  0  0  0  0  0  0  0  0  0  0
   -2.3760    2.1880   15.0590 C   0  0  0  0  0  0  0  0  0  0  0  0
   -3.3510    2.7530   15.9380 C   0  0  0  0  0  0  0  0  0  0  0  0
   -4.5650    3.3390   15.4970 C   0  0  0  0  0  0  0  0  0  0  0  0
   -5.4780    3.8900   16.3960 C   0  0  0  0  0  0  0  0  0  0  0  0
   -5.1960    3.8580   17.7530 C   0  0  0  0  0  0  0  0  0  0  0  0
   -4.0190    3.2730   18.2110 C   0  0  0  0  0  0  0  0  0  0  0  0
   -3.1010    2.7160   17.3320 C   0  0  0  0  0  0  0  0  0  0  0  0
   -2.0100    2.1510   17.8630 N   0  0  0  0  0  0  0  0  0  0  0  0
   -1.1340    1.5800   17.0190 C   0  0  0  0  0  0  0  0  0  0  0  0
   -1.2770    1.5630   15.6430 C   0  0  0  0  0  0  0  0  0  0  0  0
   -6.3110    4.5350   18.8750 Cl  0  0  0  0  0  0  0  0  0  0  0  0
   -6.1860   -1.2280   12.3890 C   0  0  0  0  0  0  0  0  0  0  0  0
   -7.6070   -0.8220   12.8150 C   0  0  0  0  0  0  0  0  0  0  0  0
   -7.6140    0.5470   13.2150 O   0  0  0  0  0  0  0  0  0  0  0  0
   -4.8108   -4.9528   12.1924 H   0  0  0  0  0  0  0  0  0  0  0  0
   -6.3425   -4.5106   11.3646 H   0  0  0  0  0  0  0  0  0  0  0  0
   -4.9586   -3.3655   11.3646 H   0  0  0  0  0  0  0  0  0  0  0  0
   -7.1128   -3.5085   13.2276 H   0  0  0  0  0  0  0  0  0  0  0  0
   -5.6247   -4.0893   14.0877 H   0  0  0  0  0  0  0  0  0  0  0  0
   -3.6458   -1.9663   14.3060 H   0  0  0  0  0  0  0  0  0  0  0  0
   -3.7267   -2.9430   12.7810 H   0  0  0  0  0  0  0  0  0  0  0  0
   -3.4475   -1.1278   11.4380 H   0  0  0  0  0  0  0  0  0  0  0  0
   -4.4173   -0.0542   12.5222 H   0  0  0  0  0  0  0  0  0  0  0  0
   -2.3686   -0.2850   14.1482 H   0  0  0  0  0  0  0  0  0  0  0  0
   -1.4881   -0.7826   12.6359 H   0  0  0  0  0  0  0  0  0  0  0  0
   -2.8132    1.4019   11.7944 H   0  0  0  0  0  0  0  0  0  0  0  0
   -0.0714    1.7310   13.0227 H   0  0  0  0  0  0  0  0  0  0  0  0
   -0.3645    0.7430   11.5515 H   0  0  0  0  0  0  0  0  0  0  0  0
   -0.7638    2.4943   11.5515 H   0  0  0  0  0  0  0  0  0  0  0  0
   -3.1735    2.9858   13.3364 H   0  0  0  0  0  0  0  0  0  0  0  0
   -4.7918    3.3594   14.4208 H   0  0  0  0  0  0  0  0  0  0  0  0
   -6.4113    4.3448   16.0324 H   0  0  0  0  0  0  0  0  0  0  0  0
   -3.8124    3.2518   19.2912 H   0  0  0  0  0  0  0  0  0  0  0  0
   -0.2459    1.0948   17.4500 H   0  0  0  0  0  0  0  0  0  0  0  0
   -0.5278    1.0593   15.0146 H   0  0  0  0  0  0  0  0  0  0  0  0
   -5.5760   -0.3210   12.2650 H   0  0  0  0  0  0  0  0  0  0  0  0
   -6.2525   -1.7841   11.4423 H   0  0  0  0  0  0  0  0  0  0  0  0
   -8.2962   -0.9596   11.9688 H   0  0  0  0  0  0  0  0  0  0  0  0
   -7.9291   -1.4505   13.6583 H   0  0  0  0  0  0  0  0  0  0  0  0
   -7.6143    0.6020   14.2035 H   0  0  0  0  0  0  0  0  0  0  0  0
  1  2  1  0
  2  3  1  0
  3  4  1  0
  4  5  1  0
  5  6  1  0
  6  7  1  0
  7  8  1  0
  7  9  1  0
  9 10  1  0
 10 11  2  0
 11 12  1  0
 12 13  2  0
 13 14  1  0
 14 15  2  0
 15 16  1  0
 16 17  2  0
 17 18  1  0
 18 19  2  0
 14 20  1  0
  3 21  1  0
 21 22  1  0
 22 23  1  0
 19 10  1  0
 16 11  1  0
  1 24  1  0
  1 25  1  0
  1 26  1  0
  2 27  1  0
  2 28  1  0
  4 29  1  0
  4 30  1  0
  5 31  1  0
  5 32  1  0
  6 33  1  0
  6 34  1  0
  7 35  1  0
  8 36  1  0
  8 37  1  0
  8 38  1  0
  9 39  1  0
 12 40  1  0
 13 41  1  0
 15 42  1  0
 18 43  1  0
 19 44  1  0
 21 45  1  0
 21 46  1  0
 22 47  1  0
 22 48  1  0
 23 49  1  0
M  END
