
     RDKit          3D

 26 28  0  0  0  0  0  0  0  0999 V2000
   -4.9940   -3.5380   13.3100 C   0  0  0  0  0  0  0  0  0  0  0  0
   -6.4350   -3.4510   13.3740 N   0  0  0  0  0  0  0  0  0  0  0  0
   -7.2200   -4.2830   14.1290 C   0  0  0  0  0  0  0  0  0  0  0  0
   -8.4970   -4.0130   13.9880 N   0  0  0  0  0  0  0  0  0  0  0  0
   -8.5420   -2.9520   13.1030 C   0  0  0  0  0  0  0  0  0  0  0  0
   -7.2680   -2.5730   12.7190 C   0  0  0  0  0  0  0  0  0  0  0  0
   -6.6700   -1.3630   11.6280 S   0  0  0  0  0  0  0  0  0  0  0  0
   -7.7880   -0.0610   12.0380 C   0  0  0  0  0  0  0  0  0  0  0  0
   -7.7300    0.5100   13.2590 N   0  0  0  0  0  0  0  0  0  0  0  0
   -8.5710    1.5320   13.5180 C   0  0  0  0  0  0  0  0  0  0  0  0
   -9.4930    2.0660   12.7090 N   0  0  0  0  0  0  0  0  0  0  0  0
   -9.5370    1.4750   11.5030 C   0  0  0  0  0  0  0  0  0  0  0  0
   -8.7140    0.4260   11.1400 C   0  0  0  0  0  0  0  0  0  0  0  0
   -9.0860    0.1200    9.8600 N   0  0  0  0  0  0  0  0  0  0  0  0
  -10.0960    0.9730    9.5100 C   0  0  0  0  0  0  0  0  0  0  0  0
  -10.3850    1.8100   10.4830 N   0  0  0  0  0  0  0  0  0  0  0  0
   -9.8160   -2.3900   12.7120 N   0  0  0  0  0  0  0  0  0  0  0  0
  -10.1700   -2.5480   11.5310 O   0  0  0  0  0  0  0  0  0  0  0  0
  -10.4660   -1.7830   13.5720 O   0  0  0  0  0  0  0  0  0  0  0  0
   -4.5825   -3.5628   14.3298 H   0  0  0  0  0  0  0  0  0  0  0  0
   -4.7054   -4.4552   12.7757 H   0  0  0  0  0  0  0  0  0  0  0  0
   -4.5972   -2.6622   12.7757 H   0  0  0  0  0  0  0  0  0  0  0  0
   -6.8271   -5.0814   14.7757 H   0  0  0  0  0  0  0  0  0  0  0  0
   -8.4886    1.9822   14.5183 H   0  0  0  0  0  0  0  0  0  0  0  0
   -8.6796   -0.6182    9.2677 H   0  0  0  0  0  0  0  0  0  0  0  0
  -10.6044    0.9608    8.5346 H   0  0  0  0  0  0  0  0  0  0  0  0
  1  2  1  0
  2  3  1  0
  3  4  2  0
  4  5  1  0
  5  6  2  0
  6  7  1  0
  7  8  1  0
  8  9  2  0
  9 10  1  0
 10 11  2  0
 11 12  1  0
 12 13  2  0
 13 14  1  0
 14 15  1  0
 15 16  2  0
  5 17  1  0
 17 18  2  0
 17 19  1  0
  6  2  1  0
 13  8  1  0
 16 12  1  0
  1 20  1  0
  1 21  1  0
  1 22  1  0
  3 23  1  0
 10 24  1  0
 14 25  1  0
 15 26  1  0
M  CHG  2  17   1  19  -1
M  END
