
     RDKit          3D

 51 52  0  0  0  0  0  0  0  0999 V2000
 -125.2700   62.5110   33.8900 C   0  0  0  0  0  0  0  0  0  0  0  0
 -124.2240   61.5910   33.4760 N   0  0  0  0  0  0  0  0  0  0  0  0
 -124.2450   60.2750   34.0930 C   0  0  0  0  0  0  0  0  0  0  0  0
 -123.1870   61.9070   32.6010 C   0  0  0  0  0  0  0  0  0  0  0  0
 -122.4010   61.0540   32.1850 O   0  0  0  0  0  0  0  0  0  0  0  0
 -123.0750   63.3580   32.1060 C   0  0  0  0  0  0  0  0  0  0  0  0
 -122.9510   63.5310   30.6950 O   0  0  0  0  0  0  0  0  0  0  0  0
 -124.1250   63.7870   30.0430 C   0  0  0  0  0  0  0  0  0  0  0  0
 -124.8520   64.7400   30.2720 O   0  0  0  0  0  0  0  0  0  0  0  0
 -124.3530   62.7090   29.0060 C   0  0  0  0  0  0  0  0  0  0  0  0
 -124.9240   61.4260   29.5590 C   0  0  0  0  0  0  0  0  0  0  0  0
 -126.0570   61.4490   30.3870 C   0  0  0  0  0  0  0  0  0  0  0  0
 -126.5830   60.2640   30.9000 C   0  0  0  0  0  0  0  0  0  0  0  0
 -125.9780   59.0530   30.5770 C   0  0  0  0  0  0  0  0  0  0  0  0
 -124.8340   59.0080   29.7820 C   0  0  0  0  0  0  0  0  0  0  0  0
 -124.3110   60.1950   29.2700 C   0  0  0  0  0  0  0  0  0  0  0  0
 -126.4930   57.8860   31.1470 O   0  0  0  0  0  0  0  0  0  0  0  0
 -127.0420   57.0020   30.2380 C   0  0  0  0  0  0  0  0  0  0  0  0
 -127.2810   57.2050   29.0560 O   0  0  0  0  0  0  0  0  0  0  0  0
 -127.3290   55.7030   30.9100 C   0  0  0  0  0  0  0  0  0  0  0  0
 -126.8080   55.3640   32.1610 C   0  0  0  0  0  0  0  0  0  0  0  0
 -127.1140   54.1250   32.7420 C   0  0  0  0  0  0  0  0  0  0  0  0
 -127.9560   53.2060   32.1050 C   0  0  0  0  0  0  0  0  0  0  0  0
 -128.4500   53.5500   30.8360 C   0  0  0  0  0  0  0  0  0  0  0  0
 -128.1500   54.7850   30.2470 C   0  0  0  0  0  0  0  0  0  0  0  0
 -128.2560   51.9300   32.6210 N   0  0  0  0  0  0  0  0  0  0  0  0
 -128.9600   51.6100   33.7410 C   0  0  0  0  0  0  0  0  0  0  0  0
 -129.0030   50.2660   33.9220 N   0  0  0  0  0  0  0  0  0  0  0  0
 -129.5420   52.4020   34.5660 N   0  0  0  0  0  0  0  0  0  0  0  0
 -125.3121   62.5480   34.9886 H   0  0  0  0  0  0  0  0  0  0  0  0
 -125.0517   63.5151   33.4974 H   0  0  0  0  0  0  0  0  0  0  0  0
 -126.2380   62.1663   33.4974 H   0  0  0  0  0  0  0  0  0  0  0  0
 -124.2433   60.3832   35.1877 H   0  0  0  0  0  0  0  0  0  0  0  0
 -125.1518   59.7373   33.7791 H   0  0  0  0  0  0  0  0  0  0  0  0
 -123.3558   59.7086   33.7791 H   0  0  0  0  0  0  0  0  0  0  0  0
 -123.9775   63.8954   32.4327 H   0  0  0  0  0  0  0  0  0  0  0  0
 -122.1393   63.7457   32.5351 H   0  0  0  0  0  0  0  0  0  0  0  0
 -125.0511   63.0995   28.2509 H   0  0  0  0  0  0  0  0  0  0  0  0
 -123.3664   62.4603   28.5880 H   0  0  0  0  0  0  0  0  0  0  0  0
 -126.5337   62.4093   30.6331 H   0  0  0  0  0  0  0  0  0  0  0  0
 -127.4675   60.2861   31.5536 H   0  0  0  0  0  0  0  0  0  0  0  0
 -124.3487   58.0460   29.5607 H   0  0  0  0  0  0  0  0  0  0  0  0
 -123.4127   60.1675   28.6357 H   0  0  0  0  0  0  0  0  0  0  0  0
 -126.1550   56.0719   32.6925 H   0  0  0  0  0  0  0  0  0  0  0  0
 -126.6824   53.8694   33.7210 H   0  0  0  0  0  0  0  0  0  0  0  0
 -129.0857   52.8348   30.2934 H   0  0  0  0  0  0  0  0  0  0  0  0
 -128.5622   55.0341   29.2580 H   0  0  0  0  0  0  0  0  0  0  0  0
 -129.5028   49.8711   34.7314 H   0  0  0  0  0  0  0  0  0  0  0  0
 -128.5358   49.6406   33.2500 H   0  0  0  0  0  0  0  0  0  0  0  0
 -130.0443   52.0195   35.3798 H   0  0  0  0  0  0  0  0  0  0  0  0
 -129.5069   53.4202   34.4144 H   0  0  0  0  0  0  0  0  0  0  0  0
  1  2  1  0
  2  3  1  0
  2  4  1  0
  4  5  2  0
  4  6  1  0
  6  7  1  0
  7  8  1  0
  8  9  2  0
  8 10  1  0
 10 11  1  0
 11 12  2  0
 12 13  1  0
 13 14  2  0
 14 15  1  0
 15 16  2  0
 14 17  1  0
 17 18  1  0
 18 19  2  0
 18 20  1  0
 20 21  2  0
 21 22  1  0
 22 23  2  0
 23 24  1  0
 24 25  2  0
 23 26  1  0
 26 27  2  3
 27 28  1  0
 27 29  1  0
 16 11  1  0
 25 20  1  0
  1 30  1  0
  1 31  1  0
  1 32  1  0
  3 33  1  0
  3 34  1  0
  3 35  1  0
  6 36  1  0
  6 37  1  0
 10 38  1  0
 10 39  1  0
 12 40  1  0
 13 41  1  0
 15 42  1  0
 16 43  1  0
 21 44  1  0
 22 45  1  0
 24 46  1  0
 25 47  1  0
 28 48  1  0
 28 49  1  0
 29 50  1  0
 29 51  1  0
M  END
