
     RDKit          3D

 48 49  0  0  0  0  0  0  0  0999 V2000
   -7.8660   -0.5120   12.8330 C   0  0  0  0  0  0  0  0  0  0  0  0
   -6.5840   -0.9400   12.1260 C   0  0  0  0  0  0  0  0  0  0  0  0
   -5.6380   -1.6690   12.9910 N   0  0  0  0  0  0  0  0  0  0  0  0
   -6.1120   -3.0010   13.4020 C   0  0  0  0  0  0  0  0  0  0  0  0
   -6.5610   -3.9400   12.2870 C   0  0  0  0  0  0  0  0  0  0  0  0
   -4.3010   -1.6790   12.3700 C   0  0  0  0  0  0  0  0  0  0  0  0
   -3.2180   -0.9060   13.1390 C   0  0  0  0  0  0  0  0  0  0  0  0
   -2.5150    0.1490   12.2710 C   0  0  0  0  0  0  0  0  0  0  0  0
   -1.6140    1.1370   13.0440 C   0  0  0  0  0  0  0  0  0  0  0  0
   -0.7780    1.9970   12.0940 C   0  0  0  0  0  0  0  0  0  0  0  0
   -2.4460    1.9920   13.9010 N   0  0  0  0  0  0  0  0  0  0  0  0
   -2.3470    2.0080   15.3040 C   0  0  0  0  0  0  0  0  0  0  0  0
   -3.3090    2.7340   16.0680 C   0  0  0  0  0  0  0  0  0  0  0  0
   -4.3820    3.4610   15.4950 C   0  0  0  0  0  0  0  0  0  0  0  0
   -5.3050    4.1410   16.2890 C   0  0  0  0  0  0  0  0  0  0  0  0
   -5.1650    4.1090   17.6670 C   0  0  0  0  0  0  0  0  0  0  0  0
   -4.1090    3.4140   18.2510 C   0  0  0  0  0  0  0  0  0  0  0  0
   -3.1790    2.7350   17.4790 C   0  0  0  0  0  0  0  0  0  0  0  0
   -2.1820    2.1100   18.1180 N   0  0  0  0  0  0  0  0  0  0  0  0
   -1.2590    1.4770   17.3720 C   0  0  0  0  0  0  0  0  0  0  0  0
   -1.2930    1.4080   15.9910 C   0  0  0  0  0  0  0  0  0  0  0  0
   -6.2960    4.9420   18.6610 Cl  0  0  0  0  0  0  0  0  0  0  0  0
   -7.7182   -0.5613   13.9219 H   0  0  0  0  0  0  0  0  0  0  0  0
   -8.1177    0.5189   12.5435 H   0  0  0  0  0  0  0  0  0  0  0  0
   -8.6866   -1.1849   12.5435 H   0  0  0  0  0  0  0  0  0  0  0  0
   -6.8550   -1.5922   11.2827 H   0  0  0  0  0  0  0  0  0  0  0  0
   -6.0758   -0.0196   11.8026 H   0  0  0  0  0  0  0  0  0  0  0  0
   -5.2918   -3.4946   13.9440 H   0  0  0  0  0  0  0  0  0  0  0  0
   -7.0130   -2.8150   14.0050 H   0  0  0  0  0  0  0  0  0  0  0  0
   -6.9960   -4.8497   12.7267 H   0  0  0  0  0  0  0  0  0  0  0  0
   -7.3157   -3.4363   11.6651 H   0  0  0  0  0  0  0  0  0  0  0  0
   -5.6951   -4.2112   11.6651 H   0  0  0  0  0  0  0  0  0  0  0  0
   -3.9744   -2.7257   12.2816 H   0  0  0  0  0  0  0  0  0  0  0  0
   -4.4101   -1.1701   11.4009 H   0  0  0  0  0  0  0  0  0  0  0  0
   -3.6874   -0.4009   13.9961 H   0  0  0  0  0  0  0  0  0  0  0  0
   -2.4572   -1.6318   13.4621 H   0  0  0  0  0  0  0  0  0  0  0  0
   -1.8904   -0.3770   11.5340 H   0  0  0  0  0  0  0  0  0  0  0  0
   -3.3134    0.7535   11.8159 H   0  0  0  0  0  0  0  0  0  0  0  0
   -0.9175    0.5546   13.6650 H   0  0  0  0  0  0  0  0  0  0  0  0
   -0.1288    2.6648   12.6793 H   0  0  0  0  0  0  0  0  0  0  0  0
   -0.1581    1.3462   11.4599 H   0  0  0  0  0  0  0  0  0  0  0  0
   -1.4461    2.5983   11.4599 H   0  0  0  0  0  0  0  0  0  0  0  0
   -3.1364    2.6107   13.4521 H   0  0  0  0  0  0  0  0  0  0  0  0
   -4.4891    3.4896   14.4006 H   0  0  0  0  0  0  0  0  0  0  0  0
   -6.1344    4.6962   15.8267 H   0  0  0  0  0  0  0  0  0  0  0  0
   -4.0108    3.4036   19.3466 H   0  0  0  0  0  0  0  0  0  0  0  0
   -0.4251    0.9834   17.8927 H   0  0  0  0  0  0  0  0  0  0  0  0
   -0.4968    0.8852   15.4408 H   0  0  0  0  0  0  0  0  0  0  0  0
  1  2  1  0
  2  3  1  0
  3  4  1  0
  4  5  1  0
  3  6  1  0
  6  7  1  0
  7  8  1  0
  8  9  1  0
  9 10  1  0
  9 11  1  0
 11 12  1  0
 12 13  2  0
 13 14  1  0
 14 15  2  0
 15 16  1  0
 16 17  2  0
 17 18  1  0
 18 19  2  0
 19 20  1  0
 20 21  2  0
 16 22  1  0
 21 12  1  0
 18 13  1  0
  1 23  1  0
  1 24  1  0
  1 25  1  0
  2 26  1  0
  2 27  1  0
  4 28  1  0
  4 29  1  0
  5 30  1  0
  5 31  1  0
  5 32  1  0
  6 33  1  0
  6 34  1  0
  7 35  1  0
  7 36  1  0
  8 37  1  0
  8 38  1  0
  9 39  1  0
 10 40  1  0
 10 41  1  0
 10 42  1  0
 11 43  1  0
 14 44  1  0
 15 45  1  0
 17 46  1  0
 20 47  1  0
 21 48  1  0
M  END
