
     RDKit          3D

 30 31  0  0  0  0  0  0  0  0999 V2000
   -2.6280    1.8840   14.3350 C   0  0  0  0  0  0  0  0  0  0  0  0
   -1.4510    1.4430   14.8300 N   0  0  0  0  0  0  0  0  0  0  0  0
   -1.1430    1.7380   16.1150 C   0  0  0  0  0  0  0  0  0  0  0  0
   -2.0730    2.4640   16.8770 C   0  0  0  0  0  0  0  0  0  0  0  0
   -3.2390    2.8440   16.2340 C   0  0  0  0  0  0  0  0  0  0  0  0
   -3.5920    2.5920   14.9630 N   0  0  0  0  0  0  0  0  0  0  0  0
   -3.9550    3.5220   17.1810 N   0  0  0  0  0  0  0  0  0  0  0  0
   -3.2230    3.5240   18.3370 C   0  0  0  0  0  0  0  0  0  0  0  0
   -2.0810    2.8850   18.1930 N   0  0  0  0  0  0  0  0  0  0  0  0
   -5.2480    4.1330   16.9820 C   0  0  0  0  0  0  0  0  0  0  0  0
   -6.2480    3.7410   18.0660 C   0  0  0  0  0  0  0  0  0  0  0  0
   -6.3800    4.7800   19.0360 O   0  0  0  0  0  0  0  0  0  0  0  0
   -7.5270    4.6050   19.8820 C   0  0  0  0  0  0  0  0  0  0  0  0
   -7.9120    6.1750   20.6530 P   0  0  0  0  0  0  0  0  0  0  0  0
   -7.5050    7.4370   19.9630 O   0  0  0  0  0  0  0  0  0  0  0  0
   -9.4940    6.1550   20.9210 O   0  0  0  0  0  0  0  0  0  0  0  0
   -7.3620    6.1110   22.1590 O   0  0  0  0  0  0  0  0  0  0  0  0
    0.0700    1.2890   16.6210 N   0  0  0  0  0  0  0  0  0  0  0  0
   -2.8276    1.6338   13.2826 H   0  0  0  0  0  0  0  0  0  0  0  0
   -3.5490    4.0014   19.2728 H   0  0  0  0  0  0  0  0  0  0  0  0
   -5.1275    5.2263   16.9908 H   0  0  0  0  0  0  0  0  0  0  0  0
   -5.6419    3.7795   16.0177 H   0  0  0  0  0  0  0  0  0  0  0  0
   -7.2278    3.5547   17.6020 H   0  0  0  0  0  0  0  0  0  0  0  0
   -5.8832    2.8337   18.5697 H   0  0  0  0  0  0  0  0  0  0  0  0
   -8.3836    4.2676   19.2800 H   0  0  0  0  0  0  0  0  0  0  0  0
   -7.3141    3.8496   20.6528 H   0  0  0  0  0  0  0  0  0  0  0  0
   -9.6635    6.1529   21.8964 H   0  0  0  0  0  0  0  0  0  0  0  0
   -8.1191    6.1991   22.7908 H   0  0  0  0  0  0  0  0  0  0  0  0
    0.3308    1.4985   17.5952 H   0  0  0  0  0  0  0  0  0  0  0  0
    0.7087    0.7465   16.0221 H   0  0  0  0  0  0  0  0  0  0  0  0
  1  2  2  0
  2  3  1  0
  3  4  2  0
  4  5  1  0
  5  6  2  0
  5  7  1  0
  7  8  1  0
  8  9  2  0
  7 10  1  0
 10 11  1  0
 11 12  1  0
 12 13  1  0
 13 14  1  0
 14 15  2  0
 14 16  1  0
 14 17  1  0
  3 18  1  0
  6  1  1  0
  9  4  1  0
  1 19  1  0
  8 20  1  0
 10 21  1  0
 10 22  1  0
 11 23  1  0
 11 24  1  0
 13 25  1  0
 13 26  1  0
 16 27  1  0
 17 28  1  0
 18 29  1  0
 18 30  1  0
M  END
