
     RDKit          3D

 62 64  0  0  0  0  0  0  0  0999 V2000
 -124.3740   62.3050   34.0400 C   0  0  0  0  0  0  0  0  0  0  0  0
 -125.7960   62.6070   34.4090 C   0  0  0  0  0  0  0  0  0  0  0  0
 -126.8490   62.1260   33.6400 C   0  0  0  0  0  0  0  0  0  0  0  0
 -126.8520   61.3070   32.4090 C   0  0  0  0  0  0  0  0  0  0  0  0
 -128.2560   61.1720   32.0910 O   0  0  0  0  0  0  0  0  0  0  0  0
 -129.0390   61.8090   33.0060 C   0  0  0  0  0  0  0  0  0  0  0  0
 -130.2520   61.8990   33.0140 O   0  0  0  0  0  0  0  0  0  0  0  0
 -128.1540   62.3990   33.9910 C   0  0  0  0  0  0  0  0  0  0  0  0
 -128.4990   63.1420   35.1050 C   0  0  0  0  0  0  0  0  0  0  0  0
 -127.4720   63.6830   35.8900 C   0  0  0  0  0  0  0  0  0  0  0  0
 -126.1280   63.4330   35.5070 C   0  0  0  0  0  0  0  0  0  0  0  0
 -125.1200   63.9760   36.2680 O   0  0  0  0  0  0  0  0  0  0  0  0
 -124.7710   63.1040   37.3470 C   0  0  0  0  0  0  0  0  0  0  0  0
 -127.8080   64.5770   37.0700 C   0  0  0  0  0  0  0  0  0  0  0  0
 -127.8090   66.0280   36.6550 C   0  0  0  0  0  0  0  0  0  0  0  0
 -128.8650   66.8250   36.3920 C   0  0  0  0  0  0  0  0  0  0  0  0
 -130.3000   66.4180   36.6130 C   0  0  0  0  0  0  0  0  0  0  0  0
 -128.7160   68.2060   35.7700 C   0  0  0  0  0  0  0  0  0  0  0  0
 -128.8500   69.4180   36.6970 C   0  0  0  0  0  0  0  0  0  0  0  0
 -127.5260   69.9090   37.2380 C   0  0  0  0  0  0  0  0  0  0  0  0
 -127.4150   70.4900   38.3130 O   0  0  0  0  0  0  0  0  0  0  0  0
 -126.5160   69.6380   36.3690 O   0  0  0  0  0  0  0  0  0  0  0  0
 -125.1860   69.9050   36.8390 C   0  0  0  0  0  0  0  0  0  0  0  0
 -124.2080   68.8440   36.3020 C   0  0  0  0  0  0  0  0  0  0  0  0
 -123.0650   69.3850   35.5450 N   0  0  0  0  0  0  0  0  0  0  0  0
 -123.2920   70.8040   35.1980 C   0  0  0  0  0  0  0  0  0  0  0  0
 -122.3870   71.2540   34.0420 C   0  0  0  0  0  0  0  0  0  0  0  0
 -122.6680   70.5610   32.8170 O   0  0  0  0  0  0  0  0  0  0  0  0
 -123.1990   69.2450   33.0270 C   0  0  0  0  0  0  0  0  0  0  0  0
 -122.7270   68.5970   34.3390 C   0  0  0  0  0  0  0  0  0  0  0  0
 -129.8060   63.3610   35.4360 O   0  0  0  0  0  0  0  0  0  0  0  0
 -123.7768   62.1782   34.9550 H   0  0  0  0  0  0  0  0  0  0  0  0
 -124.3377   61.3791   33.4472 H   0  0  0  0  0  0  0  0  0  0  0  0
 -123.9646   63.1362   33.4472 H   0  0  0  0  0  0  0  0  0  0  0  0
 -126.3131   61.8172   31.5970 H   0  0  0  0  0  0  0  0  0  0  0  0
 -126.3494   60.3374   32.5407 H   0  0  0  0  0  0  0  0  0  0  0  0
 -124.9722   63.6067   38.3045 H   0  0  0  0  0  0  0  0  0  0  0  0
 -125.3701   62.1836   37.2831 H   0  0  0  0  0  0  0  0  0  0  0  0
 -123.7024   62.8511   37.2831 H   0  0  0  0  0  0  0  0  0  0  0  0
 -128.8039   64.3102   37.4534 H   0  0  0  0  0  0  0  0  0  0  0  0
 -127.0476   64.4327   37.8516 H   0  0  0  0  0  0  0  0  0  0  0  0
 -126.8191   66.4970   36.5538 H   0  0  0  0  0  0  0  0  0  0  0  0
 -130.5027   66.3605   37.6926 H   0  0  0  0  0  0  0  0  0  0  0  0
 -130.9671   67.1624   36.1538 H   0  0  0  0  0  0  0  0  0  0  0  0
 -130.4770   65.4342   36.1538 H   0  0  0  0  0  0  0  0  0  0  0  0
 -127.7188   68.2533   35.3080 H   0  0  0  0  0  0  0  0  0  0  0  0
 -129.5625   68.2918   35.0728 H   0  0  0  0  0  0  0  0  0  0  0  0
 -129.3221   70.2369   36.1344 H   0  0  0  0  0  0  0  0  0  0  0  0
 -129.4563   69.1024   37.5589 H   0  0  0  0  0  0  0  0  0  0  0  0
 -124.8704   70.8994   36.4903 H   0  0  0  0  0  0  0  0  0  0  0  0
 -125.1812   69.8730   37.9385 H   0  0  0  0  0  0  0  0  0  0  0  0
 -123.8140   68.2770   37.1583 H   0  0  0  0  0  0  0  0  0  0  0  0
 -124.7805   68.2230   35.5973 H   0  0  0  0  0  0  0  0  0  0  0  0
 -124.3429   70.9353   34.9008 H   0  0  0  0  0  0  0  0  0  0  0  0
 -123.0543   71.4166   36.0801 H   0  0  0  0  0  0  0  0  0  0  0  0
 -122.5345   72.3317   33.8785 H   0  0  0  0  0  0  0  0  0  0  0  0
 -121.3489   71.0238   34.3236 H   0  0  0  0  0  0  0  0  0  0  0  0
 -124.2968   69.3112   33.0463 H   0  0  0  0  0  0  0  0  0  0  0  0
 -122.8344   68.6131   32.2038 H   0  0  0  0  0  0  0  0  0  0  0  0
 -123.1986   67.6071   34.4271 H   0  0  0  0  0  0  0  0  0  0  0  0
 -121.6298   68.5354   34.2914 H   0  0  0  0  0  0  0  0  0  0  0  0
 -130.0305   63.8960   36.2381 H   0  0  0  0  0  0  0  0  0  0  0  0
  1  2  1  0
  2  3  2  0
  3  4  1  0
  4  5  1  0
  5  6  1  0
  6  7  2  0
  6  8  1  0
  8  9  2  0
  9 10  1  0
 10 11  2  0
 11 12  1  0
 12 13  1  0
 10 14  1  0
 14 15  1  0
 15 16  2  0
 16 17  1  0
 16 18  1  0
 18 19  1  0
 19 20  1  0
 20 21  2  0
 20 22  1  0
 22 23  1  0
 23 24  1  0
 24 25  1  0
 25 26  1  0
 26 27  1  0
 27 28  1  0
 28 29  1  0
 29 30  1  0
  9 31  1  0
 11  2  1  0
  8  3  1  0
 30 25  1  0
  1 32  1  0
  1 33  1  0
  1 34  1  0
  4 35  1  0
  4 36  1  0
 13 37  1  0
 13 38  1  0
 13 39  1  0
 14 40  1  0
 14 41  1  0
 15 42  1  0
 17 43  1  0
 17 44  1  0
 17 45  1  0
 18 46  1  0
 18 47  1  0
 19 48  1  0
 19 49  1  0
 23 50  1  0
 23 51  1  0
 24 52  1  0
 24 53  1  0
 26 54  1  0
 26 55  1  0
 27 56  1  0
 27 57  1  0
 29 58  1  0
 29 59  1  0
 30 60  1  0
 30 61  1  0
 31 62  1  0
M  END
