
     RDKit          3D

 40 41  0  0  0  0  0  0  0  0999 V2000
  -18.2980   70.8550   11.8430 C   0  0  0  0  0  0  0  0  0  0  0  0
  -18.2470   71.1120   13.3470 C   0  0  0  0  0  0  0  0  0  0  0  0
  -17.1280   70.3370   14.0680 C   0  0  0  0  0  0  0  0  0  0  0  0
  -17.3630   68.8230   14.0930 C   0  0  0  0  0  0  0  0  0  0  0  0
  -17.7990   68.3620   15.4840 C   0  0  0  0  0  0  0  0  0  0  0  0
  -17.1010   67.1340   15.8480 N   0  0  0  0  0  0  0  0  0  0  0  0
  -19.5670   70.9230   13.9890 N   0  0  0  0  0  0  0  0  0  0  0  0
  -19.9300   71.8020   15.0500 C   0  0  0  0  0  0  0  0  0  0  0  0
  -20.6920   72.9500   14.7600 C   0  0  0  0  0  0  0  0  0  0  0  0
  -21.0280   73.8200   15.8200 C   0  0  0  0  0  0  0  0  0  0  0  0
  -20.6140   73.5380   17.1350 C   0  0  0  0  0  0  0  0  0  0  0  0
  -19.8750   72.3920   17.4120 C   0  0  0  0  0  0  0  0  0  0  0  0
  -19.5400   71.5300   16.3690 C   0  0  0  0  0  0  0  0  0  0  0  0
  -19.4250   72.0020   18.6430 O   0  0  0  0  0  0  0  0  0  0  0  0
  -19.5160   72.9510   19.6990 C   0  0  0  0  0  0  0  0  0  0  0  0
  -21.7800   74.9640   15.5210 C   0  0  0  0  0  0  0  0  0  0  0  0
  -22.1760   75.2150   14.2140 C   0  0  0  0  0  0  0  0  0  0  0  0
  -21.8030   74.3110   13.2400 C   0  0  0  0  0  0  0  0  0  0  0  0
  -21.0760   73.1990   13.4850 N   0  0  0  0  0  0  0  0  0  0  0  0
  -18.5091   69.7911   11.6598 H   0  0  0  0  0  0  0  0  0  0  0  0
  -19.0918   71.4692   11.3928 H   0  0  0  0  0  0  0  0  0  0  0  0
  -17.3298   71.1195   11.3928 H   0  0  0  0  0  0  0  0  0  0  0  0
  -17.9827   72.1740   13.4577 H   0  0  0  0  0  0  0  0  0  0  0  0
  -16.1770   70.5349   13.5519 H   0  0  0  0  0  0  0  0  0  0  0  0
  -17.1107   70.6828   15.1121 H   0  0  0  0  0  0  0  0  0  0  0  0
  -18.1486   68.5683   13.3664 H   0  0  0  0  0  0  0  0  0  0  0  0
  -16.4215   68.3167   13.8338 H   0  0  0  0  0  0  0  0  0  0  0  0
  -17.5618   69.1463   16.2179 H   0  0  0  0  0  0  0  0  0  0  0  0
  -18.8823   68.1710   15.4763 H   0  0  0  0  0  0  0  0  0  0  0  0
  -17.0565   67.0556   16.8740 H   0  0  0  0  0  0  0  0  0  0  0  0
  -17.6080   66.3240   15.4635 H   0  0  0  0  0  0  0  0  0  0  0  0
  -20.2053   70.1770   13.6776 H   0  0  0  0  0  0  0  0  0  0  0  0
  -20.8765   74.2286   17.9500 H   0  0  0  0  0  0  0  0  0  0  0  0
  -18.9597   70.6207   16.5845 H   0  0  0  0  0  0  0  0  0  0  0  0
  -19.4660   72.4293   20.6661 H   0  0  0  0  0  0  0  0  0  0  0  0
  -18.6821   73.6645   19.6237 H   0  0  0  0  0  0  0  0  0  0  0  0
  -20.4702   73.4930   19.6237 H   0  0  0  0  0  0  0  0  0  0  0  0
  -22.0570   75.6642   16.3229 H   0  0  0  0  0  0  0  0  0  0  0  0
  -22.7687   76.1069   13.9626 H   0  0  0  0  0  0  0  0  0  0  0  0
  -22.1159   74.5074   12.2039 H   0  0  0  0  0  0  0  0  0  0  0  0
  1  2  1  0
  2  3  1  0
  3  4  1  0
  4  5  1  0
  5  6  1  0
  2  7  1  0
  7  8  1  0
  8  9  2  0
  9 10  1  0
 10 11  2  0
 11 12  1  0
 12 13  2  0
 12 14  1  0
 14 15  1  0
 10 16  1  0
 16 17  2  0
 17 18  1  0
 18 19  2  0
 13  8  1  0
 19  9  1  0
  1 20  1  0
  1 21  1  0
  1 22  1  0
  2 23  1  0
  3 24  1  0
  3 25  1  0
  4 26  1  0
  4 27  1  0
  5 28  1  0
  5 29  1  0
  6 30  1  0
  6 31  1  0
  7 32  1  0
 11 33  1  0
 13 34  1  0
 15 35  1  0
 15 36  1  0
 15 37  1  0
 16 38  1  0
 17 39  1  0
 18 40  1  0
M  END
