
     RDKit          3D

 52 54  0  0  0  0  0  0  0  0999 V2000
 -130.5730   61.3730   33.8990 C   0  0  0  0  0  0  0  0  0  0  0  0
 -129.9550   61.3910   32.6190 O   0  0  0  0  0  0  0  0  0  0  0  0
 -128.9990   62.4410   32.4790 C   0  0  0  0  0  0  0  0  0  0  0  0
 -127.5640   61.9230   32.5730 C   0  0  0  0  0  0  0  0  0  0  0  0
 -126.8250   62.4350   31.4680 O   0  0  0  0  0  0  0  0  0  0  0  0
 -126.1700   61.5390   30.6630 C   0  0  0  0  0  0  0  0  0  0  0  0
 -125.1440   62.0610   29.8600 C   0  0  0  0  0  0  0  0  0  0  0  0
 -124.4350   61.2050   29.0130 C   0  0  0  0  0  0  0  0  0  0  0  0
 -124.7210   59.8490   28.9290 C   0  0  0  0  0  0  0  0  0  0  0  0
 -125.7570   59.3220   29.7080 C   0  0  0  0  0  0  0  0  0  0  0  0
 -126.4730   60.1790   30.5820 C   0  0  0  0  0  0  0  0  0  0  0  0
 -125.9920   57.9400   29.5530 C   0  0  0  0  0  0  0  0  0  0  0  0
 -125.2490   57.1800   28.7310 N   0  0  0  0  0  0  0  0  0  0  0  0
 -124.2830   57.7970   28.0460 C   0  0  0  0  0  0  0  0  0  0  0  0
 -123.9890   59.1000   28.0990 N   0  0  0  0  0  0  0  0  0  0  0  0
 -127.0640   57.3440   30.2730 N   0  0  0  0  0  0  0  0  0  0  0  0
 -127.3140   55.9680   30.4930 C   0  0  0  0  0  0  0  0  0  0  0  0
 -128.0980   55.2640   29.5670 C   0  0  0  0  0  0  0  0  0  0  0  0
 -128.4290   53.9210   29.7720 C   0  0  0  0  0  0  0  0  0  0  0  0
 -127.9980   53.2680   30.9250 C   0  0  0  0  0  0  0  0  0  0  0  0
 -127.2500   53.9610   31.8760 C   0  0  0  0  0  0  0  0  0  0  0  0
 -126.9230   55.3060   31.6640 C   0  0  0  0  0  0  0  0  0  0  0  0
 -126.8270   53.3010   33.0720 C   0  0  0  0  0  0  0  0  0  0  0  0
 -126.4710   52.7470   34.0770 C   0  0  0  0  0  0  0  0  0  0  0  0
 -124.9090   63.4050   29.9950 O   0  0  0  0  0  0  0  0  0  0  0  0
 -123.5850   63.8760   30.2610 C   0  0  0  0  0  0  0  0  0  0  0  0
 -123.2770   63.9310   31.7610 C   0  0  0  0  0  0  0  0  0  0  0  0
 -122.1620   63.1140   32.1410 O   0  0  0  0  0  0  0  0  0  0  0  0
 -122.5300   61.7920   32.5120 C   0  0  0  0  0  0  0  0  0  0  0  0
 -129.7989   61.3955   34.6802 H   0  0  0  0  0  0  0  0  0  0  0  0
 -131.2253   62.2525   34.0036 H   0  0  0  0  0  0  0  0  0  0  0  0
 -131.1730   60.4570   34.0036 H   0  0  0  0  0  0  0  0  0  0  0  0
 -129.1399   62.9217   31.4997 H   0  0  0  0  0  0  0  0  0  0  0  0
 -129.1570   63.1568   33.2991 H   0  0  0  0  0  0  0  0  0  0  0  0
 -127.1076   62.2634   33.5142 H   0  0  0  0  0  0  0  0  0  0  0  0
 -127.5584   60.8232   32.5529 H   0  0  0  0  0  0  0  0  0  0  0  0
 -123.6253   61.6183   28.3937 H   0  0  0  0  0  0  0  0  0  0  0  0
 -127.2794   59.7656   31.2056 H   0  0  0  0  0  0  0  0  0  0  0  0
 -123.6720   57.1749   27.3754 H   0  0  0  0  0  0  0  0  0  0  0  0
 -127.7451   57.9964   30.6870 H   0  0  0  0  0  0  0  0  0  0  0  0
 -128.4588   55.7775   28.6636 H   0  0  0  0  0  0  0  0  0  0  0  0
 -129.0286   53.3810   29.0244 H   0  0  0  0  0  0  0  0  0  0  0  0
 -128.2472   52.2085   31.0845 H   0  0  0  0  0  0  0  0  0  0  0  0
 -126.3503   55.8511   32.4288 H   0  0  0  0  0  0  0  0  0  0  0  0
 -126.1451   52.2398   34.9971 H   0  0  0  0  0  0  0  0  0  0  0  0
 -122.8652   63.1997   29.7768 H   0  0  0  0  0  0  0  0  0  0  0  0
 -123.5058   64.8987   29.8638 H   0  0  0  0  0  0  0  0  0  0  0  0
 -123.0553   64.9733   32.0340 H   0  0  0  0  0  0  0  0  0  0  0  0
 -124.1603   63.5432   32.2895 H   0  0  0  0  0  0  0  0  0  0  0  0
 -122.5523   61.7118   33.6088 H   0  0  0  0  0  0  0  0  0  0  0  0
 -123.5265   61.5615   32.1071 H   0  0  0  0  0  0  0  0  0  0  0  0
 -121.7960   61.0798   32.1071 H   0  0  0  0  0  0  0  0  0  0  0  0
  1  2  1  0
  2  3  1  0
  3  4  1  0
  4  5  1  0
  5  6  1  0
  6  7  2  0
  7  8  1  0
  8  9  2  0
  9 10  1  0
 10 11  2  0
 10 12  1  0
 12 13  2  0
 13 14  1  0
 14 15  2  0
 12 16  1  0
 16 17  1  0
 17 18  2  0
 18 19  1  0
 19 20  2  0
 20 21  1  0
 21 22  2  0
 21 23  1  0
 23 24  3  0
  7 25  1  0
 25 26  1  0
 26 27  1  0
 27 28  1  0
 28 29  1  0
 11  6  1  0
 15  9  1  0
 22 17  1  0
  1 30  1  0
  1 31  1  0
  1 32  1  0
  3 33  1  0
  3 34  1  0
  4 35  1  0
  4 36  1  0
  8 37  1  0
 11 38  1  0
 14 39  1  0
 16 40  1  0
 18 41  1  0
 19 42  1  0
 20 43  1  0
 22 44  1  0
 24 45  1  0
 26 46  1  0
 26 47  1  0
 27 48  1  0
 27 49  1  0
 29 50  1  0
 29 51  1  0
 29 52  1  0
M  END
