
     RDKit          3D

 49 50  0  0  0  0  0  0  0  0999 V2000
  -12.5530    7.9240   17.6370 C   0  0  0  0  0  0  0  0  0  0  0  0
  -12.3520    8.8240   18.6900 C   0  0  0  0  0  0  0  0  0  0  0  0
  -13.1580    8.7630   19.8280 C   0  0  0  0  0  0  0  0  0  0  0  0
  -14.1620    7.7940   19.9060 C   0  0  0  0  0  0  0  0  0  0  0  0
  -14.3670    6.8920   18.8590 C   0  0  0  0  0  0  0  0  0  0  0  0
  -13.5630    6.9610   17.7190 C   0  0  0  0  0  0  0  0  0  0  0  0
  -13.7770    5.9930   16.6100 C   0  0  0  0  0  0  0  0  0  0  0  0
  -13.8070    6.3490   15.3650 N   0  0  0  0  0  0  0  0  0  0  0  0
  -13.9400    4.6660   16.8800 N   0  0  0  0  0  0  0  0  0  0  0  0
  -13.0680    9.5780   20.9220 O   0  0  0  0  0  0  0  0  0  0  0  0
  -12.9280    8.9490   22.1950 C   0  0  0  0  0  0  0  0  0  0  0  0
  -11.5570    8.2720   22.2630 C   0  0  0  0  0  0  0  0  0  0  0  0
  -11.6690    6.7460   22.3530 C   0  0  0  0  0  0  0  0  0  0  0  0
  -11.0190    6.0210   21.1740 C   0  0  0  0  0  0  0  0  0  0  0  0
   -9.7960    6.7380   20.6050 C   0  0  0  0  0  0  0  0  0  0  0  0
   -8.6350    6.0330   21.0470 O   0  0  0  0  0  0  0  0  0  0  0  0
   -7.6360    5.8380   20.1340 C   0  0  0  0  0  0  0  0  0  0  0  0
   -7.2070    4.6070   19.6350 C   0  0  0  0  0  0  0  0  0  0  0  0
   -6.1670    4.5500   18.6990 C   0  0  0  0  0  0  0  0  0  0  0  0
   -5.5530    5.7270   18.2580 C   0  0  0  0  0  0  0  0  0  0  0  0
   -5.9760    6.9600   18.7600 C   0  0  0  0  0  0  0  0  0  0  0  0
   -7.0160    7.0110   19.6920 C   0  0  0  0  0  0  0  0  0  0  0  0
   -4.4390    5.6760   17.2740 C   0  0  0  0  0  0  0  0  0  0  0  0
   -4.6310    5.4810   16.0090 N   0  0  0  0  0  0  0  0  0  0  0  0
   -3.1510    5.8280   17.6900 N   0  0  0  0  0  0  0  0  0  0  0  0
  -11.9146    7.9746   16.7427 H   0  0  0  0  0  0  0  0  0  0  0  0
  -11.5570    9.5811   18.6206 H   0  0  0  0  0  0  0  0  0  0  0  0
  -14.7980    7.7409   20.8019 H   0  0  0  0  0  0  0  0  0  0  0  0
  -15.1579    6.1310   18.9321 H   0  0  0  0  0  0  0  0  0  0  0  0
  -13.9582    5.6426   14.6309 H   0  0  0  0  0  0  0  0  0  0  0  0
  -14.0880    3.9982   16.1099 H   0  0  0  0  0  0  0  0  0  0  0  0
  -13.9151    4.3318   17.8539 H   0  0  0  0  0  0  0  0  0  0  0  0
  -13.0073    9.7040   22.9911 H   0  0  0  0  0  0  0  0  0  0  0  0
  -13.7218    8.1997   22.3308 H   0  0  0  0  0  0  0  0  0  0  0  0
  -10.9878    8.5328   21.3585 H   0  0  0  0  0  0  0  0  0  0  0  0
  -11.0493    8.6277   23.1717 H   0  0  0  0  0  0  0  0  0  0  0  0
  -11.1788    6.4141   23.2801 H   0  0  0  0  0  0  0  0  0  0  0  0
  -12.7403    6.4966   22.3382 H   0  0  0  0  0  0  0  0  0  0  0  0
  -10.7086    5.0209   21.5108 H   0  0  0  0  0  0  0  0  0  0  0  0
  -11.7690    5.9819   20.3703 H   0  0  0  0  0  0  0  0  0  0  0  0
   -9.8390    6.7373   19.5058 H   0  0  0  0  0  0  0  0  0  0  0  0
   -9.7669    7.7824   20.9490 H   0  0  0  0  0  0  0  0  0  0  0  0
   -7.6874    3.6788   19.9781 H   0  0  0  0  0  0  0  0  0  0  0  0
   -5.8321    3.5773   18.3096 H   0  0  0  0  0  0  0  0  0  0  0  0
   -5.4918    7.8883   18.4226 H   0  0  0  0  0  0  0  0  0  0  0  0
   -7.3504    7.9837   20.0819 H   0  0  0  0  0  0  0  0  0  0  0  0
   -3.8281    5.4534   15.3645 H   0  0  0  0  0  0  0  0  0  0  0  0
   -2.3814    5.7922   17.0064 H   0  0  0  0  0  0  0  0  0  0  0  0
   -2.9466    5.9787   18.6882 H   0  0  0  0  0  0  0  0  0  0  0  0
  1  2  2  0
  2  3  1  0
  3  4  2  0
  4  5  1  0
  5  6  2  0
  6  7  1  0
  7  8  2  3
  7  9  1  0
  3 10  1  0
 10 11  1  0
 11 12  1  0
 12 13  1  0
 13 14  1  0
 14 15  1  0
 15 16  1  0
 16 17  1  0
 17 18  2  0
 18 19  1  0
 19 20  2  0
 20 21  1  0
 21 22  2  0
 20 23  1  0
 23 24  2  3
 23 25  1  0
  6  1  1  0
 22 17  1  0
  1 26  1  0
  2 27  1  0
  4 28  1  0
  5 29  1  0
  8 30  1  0
  9 31  1  0
  9 32  1  0
 11 33  1  0
 11 34  1  0
 12 35  1  0
 12 36  1  0
 13 37  1  0
 13 38  1  0
 14 39  1  0
 14 40  1  0
 15 41  1  0
 15 42  1  0
 18 43  1  0
 19 44  1  0
 21 45  1  0
 22 46  1  0
 24 47  1  0
 25 48  1  0
 25 49  1  0
M  END
