
     RDKit          3D

 43 46  0  0  0  0  0  0  0  0999 V2000
   -5.7050   68.8840   25.3440 C   0  0  0  0  0  0  0  0  0  0  0  0
   -4.6090   69.3640   24.4160 C   0  0  0  0  0  0  0  0  0  0  0  0
   -4.0760   71.0170   24.8410 S   0  0  0  0  0  0  0  0  0  0  0  0
   -4.8400   71.4830   25.9770 O   0  0  0  0  0  0  0  0  0  0  0  0
   -2.6300   71.0700   24.8260 O   0  0  0  0  0  0  0  0  0  0  0  0
   -4.6120   71.8830   23.4840 N   0  0  0  0  0  0  0  0  0  0  0  0
   -4.1600   73.2650   23.1210 C   0  0  0  0  0  0  0  0  0  0  0  0
   -5.5990   73.8090   23.3150 C   0  0  0  0  0  0  0  0  0  0  0  0
   -6.0330   72.3230   23.2970 C   0  0  0  0  0  0  0  0  0  0  0  0
   -5.8070   74.6030   24.5990 C   0  0  0  0  0  0  0  0  0  0  0  0
   -7.0510   74.2170   25.2770 C   0  0  0  0  0  0  0  0  0  0  0  0
   -8.0480   73.9460   25.8040 N   0  0  0  0  0  0  0  0  0  0  0  0
   -6.0270   74.5740   22.1240 N   0  0  0  0  0  0  0  0  0  0  0  0
   -5.5050   74.4510   20.8700 C   0  0  0  0  0  0  0  0  0  0  0  0
   -6.2240   75.3070   20.0560 C   0  0  0  0  0  0  0  0  0  0  0  0
   -7.1990   75.8490   20.9210 C   0  0  0  0  0  0  0  0  0  0  0  0
   -7.0840   75.4080   22.1770 N   0  0  0  0  0  0  0  0  0  0  0  0
   -5.9790   75.4700   18.6410 C   0  0  0  0  0  0  0  0  0  0  0  0
   -5.7540   76.7180   18.0440 C   0  0  0  0  0  0  0  0  0  0  0  0
   -5.6430   78.0840   18.4360 C   0  0  0  0  0  0  0  0  0  0  0  0
   -5.4010   78.8340   17.3030 C   0  0  0  0  0  0  0  0  0  0  0  0
   -5.3530   77.9750   16.2370 N   0  0  0  0  0  0  0  0  0  0  0  0
   -5.5520   76.6930   16.6700 C   0  0  0  0  0  0  0  0  0  0  0  0
   -5.5440   75.6180   15.8690 N   0  0  0  0  0  0  0  0  0  0  0  0
   -5.7520   74.4850   16.5550 C   0  0  0  0  0  0  0  0  0  0  0  0
   -5.9590   74.3490   17.8770 N   0  0  0  0  0  0  0  0  0  0  0  0
   -5.3882   69.0228   26.3882 H   0  0  0  0  0  0  0  0  0  0  0  0
   -6.6218   69.4630   25.1590 H   0  0  0  0  0  0  0  0  0  0  0  0
   -5.9012   67.8176   25.1590 H   0  0  0  0  0  0  0  0  0  0  0  0
   -3.7506   68.6802   24.4913 H   0  0  0  0  0  0  0  0  0  0  0  0
   -5.0049   69.3798   23.3898 H   0  0  0  0  0  0  0  0  0  0  0  0
   -3.4241   73.6913   23.8187 H   0  0  0  0  0  0  0  0  0  0  0  0
   -3.6295   73.4389   22.1732 H   0  0  0  0  0  0  0  0  0  0  0  0
   -6.6992   72.0431   24.1264 H   0  0  0  0  0  0  0  0  0  0  0  0
   -6.6224   71.9330   22.4541 H   0  0  0  0  0  0  0  0  0  0  0  0
   -4.9594   74.4172   25.2750 H   0  0  0  0  0  0  0  0  0  0  0  0
   -5.8740   75.6693   24.3374 H   0  0  0  0  0  0  0  0  0  0  0  0
   -4.6738   73.7980   20.5654 H   0  0  0  0  0  0  0  0  0  0  0  0
   -7.9725   76.5600   20.5951 H   0  0  0  0  0  0  0  0  0  0  0  0
   -5.7342   78.4721   19.4612 H   0  0  0  0  0  0  0  0  0  0  0  0
   -5.2702   79.9255   17.2631 H   0  0  0  0  0  0  0  0  0  0  0  0
   -5.1916   78.2524   15.2583 H   0  0  0  0  0  0  0  0  0  0  0  0
   -5.7535   73.5557   15.9664 H   0  0  0  0  0  0  0  0  0  0  0  0
  1  2  1  0
  2  3  1  0
  3  4  2  0
  3  5  2  0
  3  6  1  0
  6  7  1  0
  7  8  1  0
  8  9  1  0
  8 10  1  0
 10 11  1  0
 11 12  3  0
  8 13  1  0
 13 14  1  0
 14 15  2  0
 15 16  1  0
 16 17  2  0
 15 18  1  0
 18 19  2  0
 19 20  1  0
 20 21  2  0
 21 22  1  0
 22 23  1  0
 23 24  2  0
 24 25  1  0
 25 26  2  0
  9  6  1  0
 17 13  1  0
 26 18  1  0
 23 19  1  0
  1 27  1  0
  1 28  1  0
  1 29  1  0
  2 30  1  0
  2 31  1  0
  7 32  1  0
  7 33  1  0
  9 34  1  0
  9 35  1  0
 10 36  1  0
 10 37  1  0
 14 38  1  0
 16 39  1  0
 20 40  1  0
 21 41  1  0
 22 42  1  0
 25 43  1  0
M  END
