
     RDKit          3D

 31 32  0  0  0  0  0  0  0  0999 V2000
 -112.9040   66.1480   30.2270 C   0  0  0  0  0  0  0  0  0  0  0  0
 -113.8970   67.2290   29.8810 C   0  0  1  0  0  0  0  0  0  0  0  0
 -115.1910   66.4460   29.6640 C   0  0  2  0  0  0  0  0  0  0  0  0
 -115.0710   65.2000   30.4010 O   0  0  0  0  0  0  0  0  0  0  0  0
 -113.7720   65.1790   31.0230 C   0  0  1  0  0  0  0  0  0  0  0  0
 -113.2250   63.8270   31.0570 N   0  0  0  0  0  0  0  0  0  0  0  0
 -113.0770   63.0710   29.9080 C   0  0  0  0  0  0  0  0  0  0  0  0
 -112.5540   61.8370   29.9200 C   0  0  0  0  0  0  0  0  0  0  0  0
 -112.1170   61.2780   31.2050 C   0  0  0  0  0  0  0  0  0  0  0  0
 -111.6130   60.1670   31.3050 O   0  0  0  0  0  0  0  0  0  0  0  0
 -112.2970   62.0820   32.2970 N   0  0  0  0  0  0  0  0  0  0  0  0
 -112.8060   63.3540   32.2950 C   0  0  0  0  0  0  0  0  0  0  0  0
 -112.8570   64.0060   33.3350 O   0  0  0  0  0  0  0  0  0  0  0  0
 -112.3670   60.9640   28.7400 C   0  0  0  0  0  0  0  0  0  0  0  0
 -112.8930   59.7270   28.9110 F   0  0  0  0  0  0  0  0  0  0  0  0
 -112.9790   61.4820   27.6380 F   0  0  0  0  0  0  0  0  0  0  0  0
 -111.0620   60.8170   28.4010 F   0  0  0  0  0  0  0  0  0  0  0  0
 -115.4160   66.0750   28.1970 C   0  0  0  0  0  0  0  0  0  0  0  0
 -116.8000   65.8140   27.9670 O   0  0  0  0  0  0  0  0  0  0  0  0
 -114.0440   68.1020   31.0020 O   0  0  0  0  0  0  0  0  0  0  0  0
 -112.4968   65.6723   29.3226 H   0  0  0  0  0  0  0  0  0  0  0  0
 -112.0202   66.5098   30.7730 H   0  0  0  0  0  0  0  0  0  0  0  0
 -113.6078   67.8426   29.0151 H   0  0  0  0  0  0  0  0  0  0  0  0
 -116.0295   67.0760   29.9957 H   0  0  0  0  0  0  0  0  0  0  0  0
 -113.8198   65.4924   32.0763 H   0  0  0  0  0  0  0  0  0  0  0  0
 -113.4009   63.4989   28.9478 H   0  0  0  0  0  0  0  0  0  0  0  0
 -112.0230   61.6929   33.2104 H   0  0  0  0  0  0  0  0  0  0  0  0
 -115.0909   66.9081   27.5565 H   0  0  0  0  0  0  0  0  0  0  0  0
 -114.8337   65.1726   27.9590 H   0  0  0  0  0  0  0  0  0  0  0  0
 -117.2679   65.7258   28.8350 H   0  0  0  0  0  0  0  0  0  0  0  0
 -113.9563   67.5813   31.8395 H   0  0  0  0  0  0  0  0  0  0  0  0
  1  2  1  0
  2  3  1  0
  3  4  1  0
  4  5  1  0
  5  6  1  0
  6  7  1  0
  7  8  2  0
  8  9  1  0
  9 10  2  0
  9 11  1  0
 11 12  1  0
 12 13  2  0
  8 14  1  0
 14 15  1  0
 14 16  1  0
 14 17  1  0
  3 18  1  0
 18 19  1  0
  2 20  1  0
  5  1  1  0
 12  6  1  0
  1 21  1  0
  1 22  1  0
  2 23  1  6
  3 24  1  1
  5 25  1  1
  7 26  1  0
 11 27  1  0
 18 28  1  0
 18 29  1  0
 19 30  1  0
 20 31  1  0
M  END
