
     RDKit          3D

 49 52  0  0  0  0  0  0  0  0999 V2000
   -5.8350    4.2210   18.4420 C   0  0  0  0  0  0  0  0  0  0  0  0
   -5.0830    3.3620   17.5390 N   0  0  0  0  0  0  0  0  0  0  0  0
   -3.6900    3.1960   17.9570 C   0  0  0  0  0  0  0  0  0  0  0  0
   -2.9080    2.2100   17.0470 C   0  0  0  0  0  0  0  0  0  0  0  0
   -3.3980    2.0980   15.6550 N   0  0  0  0  0  0  0  0  0  0  0  0
   -3.9930    3.3700   15.2230 C   0  0  0  0  0  0  0  0  0  0  0  0
   -5.1520    3.8420   16.1460 C   0  0  0  0  0  0  0  0  0  0  0  0
   -2.3480    1.5910   14.7670 C   0  0  0  0  0  0  0  0  0  0  0  0
   -2.5690    0.1330   14.3460 C   0  0  0  0  0  0  0  0  0  0  0  0
   -3.0090    0.0610   12.8770 C   0  0  0  0  0  0  0  0  0  0  0  0
   -3.3660   -1.3190   12.4730 N   0  0  0  0  0  0  0  0  0  0  0  0
   -2.2910   -2.2260   12.2400 C   0  0  0  0  0  0  0  0  0  0  0  0
   -0.9630   -1.7850   12.0310 C   0  0  0  0  0  0  0  0  0  0  0  0
    0.0980   -2.6670   11.7900 C   0  0  0  0  0  0  0  0  0  0  0  0
   -0.1330   -4.0300   11.7430 C   0  0  0  0  0  0  0  0  0  0  0  0
   -1.4250   -4.5030   11.9350 C   0  0  0  0  0  0  0  0  0  0  0  0
   -2.4970   -3.6190   12.1760 C   0  0  0  0  0  0  0  0  0  0  0  0
   -4.0760   -4.3920   12.4280 S   0  0  0  0  0  0  0  0  0  0  0  0
   -5.1830   -3.0010   12.4200 C   0  0  0  0  0  0  0  0  0  0  0  0
   -4.7510   -1.6590   12.4630 C   0  0  0  0  0  0  0  0  0  0  0  0
   -5.7680   -0.6770   12.4700 C   0  0  0  0  0  0  0  0  0  0  0  0
   -7.1260   -1.0090   12.4480 C   0  0  0  0  0  0  0  0  0  0  0  0
   -7.5260   -2.3340   12.4150 C   0  0  0  0  0  0  0  0  0  0  0  0
   -6.5550   -3.3260   12.4000 C   0  0  0  0  0  0  0  0  0  0  0  0
   -8.3120    0.2390   12.4620 Cl  0  0  0  0  0  0  0  0  0  0  0  0
   -5.6006    3.9533   19.4829 H   0  0  0  0  0  0  0  0  0  0  0  0
   -5.5605    5.2710   18.2628 H   0  0  0  0  0  0  0  0  0  0  0  0
   -6.9121    4.0878   18.2628 H   0  0  0  0  0  0  0  0  0  0  0  0
   -3.1927    4.1766   17.9235 H   0  0  0  0  0  0  0  0  0  0  0  0
   -3.6945    2.7786   18.9747 H   0  0  0  0  0  0  0  0  0  0  0  0
   -1.8598    2.5417   17.0110 H   0  0  0  0  0  0  0  0  0  0  0  0
   -3.0448    1.2147   17.4949 H   0  0  0  0  0  0  0  0  0  0  0  0
   -3.2090    4.1415   15.2221 H   0  0  0  0  0  0  0  0  0  0  0  0
   -4.4145    3.2125   14.2192 H   0  0  0  0  0  0  0  0  0  0  0  0
   -5.1453    4.9418   16.1647 H   0  0  0  0  0  0  0  0  0  0  0  0
   -6.0724    3.4143   15.7218 H   0  0  0  0  0  0  0  0  0  0  0  0
   -2.3221    2.2166   13.8626 H   0  0  0  0  0  0  0  0  0  0  0  0
   -1.3998    1.6319   15.3231 H   0  0  0  0  0  0  0  0  0  0  0  0
   -1.6303   -0.4266   14.4710 H   0  0  0  0  0  0  0  0  0  0  0  0
   -3.3570   -0.3049   14.9764 H   0  0  0  0  0  0  0  0  0  0  0  0
   -3.8856    0.7105   12.7363 H   0  0  0  0  0  0  0  0  0  0  0  0
   -2.1658    0.3911   12.2525 H   0  0  0  0  0  0  0  0  0  0  0  0
   -0.7553   -0.7052   12.0589 H   0  0  0  0  0  0  0  0  0  0  0  0
    1.1148   -2.2758   11.6381 H   0  0  0  0  0  0  0  0  0  0  0  0
    0.6949   -4.7297   11.5562 H   0  0  0  0  0  0  0  0  0  0  0  0
   -1.6152   -5.5858   11.8984 H   0  0  0  0  0  0  0  0  0  0  0  0
   -5.4811    0.3847   12.4936 H   0  0  0  0  0  0  0  0  0  0  0  0
   -8.5942   -2.5961   12.4009 H   0  0  0  0  0  0  0  0  0  0  0  0
   -6.8607   -4.3823   12.3721 H   0  0  0  0  0  0  0  0  0  0  0  0
  1  2  1  0
  2  3  1  0
  3  4  1  0
  4  5  1  0
  5  6  1  0
  6  7  1  0
  5  8  1  0
  8  9  1  0
  9 10  1  0
 10 11  1  0
 11 12  1  0
 12 13  2  0
 13 14  1  0
 14 15  2  0
 15 16  1  0
 16 17  2  0
 17 18  1  0
 18 19  1  0
 19 20  2  0
 20 21  1  0
 21 22  2  0
 22 23  1  0
 23 24  2  0
 22 25  1  0
  7  2  1  0
 20 11  1  0
 17 12  1  0
 24 19  1  0
  1 26  1  0
  1 27  1  0
  1 28  1  0
  3 29  1  0
  3 30  1  0
  4 31  1  0
  4 32  1  0
  6 33  1  0
  6 34  1  0
  7 35  1  0
  7 36  1  0
  8 37  1  0
  8 38  1  0
  9 39  1  0
  9 40  1  0
 10 41  1  0
 10 42  1  0
 13 43  1  0
 14 44  1  0
 15 45  1  0
 16 46  1  0
 21 47  1  0
 23 48  1  0
 24 49  1  0
M  END
