
     RDKit          3D

 42 43  0  0  0  0  0  0  0  0999 V2000
  -23.3900   68.1940   35.2870 C   0  0  0  0  0  0  0  0  0  0  0  0
  -22.2540   67.2440   35.6550 C   0  0  0  0  0  0  0  0  0  0  0  0
  -20.9100   67.9630   35.6230 C   0  0  0  0  0  0  0  0  0  0  0  0
  -22.2210   66.0550   34.7150 C   0  0  0  0  0  0  0  0  0  0  0  0
  -22.7240   64.9610   34.9330 O   0  0  0  0  0  0  0  0  0  0  0  0
  -21.5560   66.3820   33.5700 O   0  0  0  0  0  0  0  0  0  0  0  0
  -22.2850   66.1480   32.3510 C   0  0  0  0  0  0  0  0  0  0  0  0
  -22.1960   67.3600   31.4120 C   0  0  2  0  0  0  0  0  0  0  0  0
  -21.3170   67.0790   30.1950 C   0  0  2  0  0  0  0  0  0  0  0  0
  -19.9460   67.5110   30.6850 C   0  0  2  0  0  0  0  0  0  0  0  0
  -20.3200   68.7670   31.4910 C   0  0  1  0  0  0  0  0  0  0  0  0
  -21.5780   68.4580   32.1350 O   0  0  0  0  0  0  0  0  0  0  0  0
  -19.3150   69.1390   32.4780 N   0  0  0  0  0  0  0  0  0  0  0  0
  -18.3760   68.2380   32.9260 C   0  0  0  0  0  0  0  0  0  0  0  0
  -17.4270   68.6030   33.7840 C   0  0  0  0  0  0  0  0  0  0  0  0
  -17.4410   70.0200   34.2080 C   0  0  0  0  0  0  0  0  0  0  0  0
  -18.3190   70.8750   33.7680 N   0  0  0  0  0  0  0  0  0  0  0  0
  -19.2910   70.4760   32.8820 C   0  0  0  0  0  0  0  0  0  0  0  0
  -20.1250   71.2830   32.4770 O   0  0  0  0  0  0  0  0  0  0  0  0
  -16.4760   70.4590   35.1010 N   0  0  0  0  0  0  0  0  0  0  0  0
  -16.8350   71.6410   35.7670 O   0  0  0  0  0  0  0  0  0  0  0  0
  -19.0430   67.7150   29.6100 O   0  0  0  0  0  0  0  0  0  0  0  0
  -21.6880   67.9270   29.0950 O   0  0  0  0  0  0  0  0  0  0  0  0
  -23.8548   68.5827   36.2051 H   0  0  0  0  0  0  0  0  0  0  0  0
  -22.9909   69.0310   34.6953 H   0  0  0  0  0  0  0  0  0  0  0  0
  -24.1432   67.6531   34.6953 H   0  0  0  0  0  0  0  0  0  0  0  0
  -22.4382   66.8846   36.6782 H   0  0  0  0  0  0  0  0  0  0  0  0
  -20.5676   68.1462   36.6522 H   0  0  0  0  0  0  0  0  0  0  0  0
  -20.1727   67.3388   35.0969 H   0  0  0  0  0  0  0  0  0  0  0  0
  -21.0200   68.9227   35.0969 H   0  0  0  0  0  0  0  0  0  0  0  0
  -21.8628   65.2683   31.8431 H   0  0  0  0  0  0  0  0  0  0  0  0
  -23.3422   65.9785   32.6033 H   0  0  0  0  0  0  0  0  0  0  0  0
  -23.2161   67.5951   31.0742 H   0  0  0  0  0  0  0  0  0  0  0  0
  -21.3851   66.0379   29.8464 H   0  0  0  0  0  0  0  0  0  0  0  0
  -19.3928   66.7771   31.2894 H   0  0  0  0  0  0  0  0  0  0  0  0
  -20.3910   69.6355   30.8197 H   0  0  0  0  0  0  0  0  0  0  0  0
  -18.4108   67.1983   32.5685 H   0  0  0  0  0  0  0  0  0  0  0  0
  -16.6751   67.8918   34.1567 H   0  0  0  0  0  0  0  0  0  0  0  0
  -15.5851   69.9672   35.2598 H   0  0  0  0  0  0  0  0  0  0  0  0
  -16.7907   71.4951   36.7452 H   0  0  0  0  0  0  0  0  0  0  0  0
  -18.1431   67.9183   29.9690 H   0  0  0  0  0  0  0  0  0  0  0  0
  -22.0594   68.7760   29.4435 H   0  0  0  0  0  0  0  0  0  0  0  0
  1  2  1  0
  2  3  1  0
  2  4  1  0
  4  5  2  0
  4  6  1  0
  6  7  1  0
  7  8  1  0
  8  9  1  0
  9 10  1  0
 10 11  1  0
 11 12  1  0
 11 13  1  0
 13 14  1  0
 14 15  2  0
 15 16  1  0
 16 17  2  0
 17 18  1  0
 18 19  2  0
 16 20  1  0
 20 21  1  0
 10 22  1  0
  9 23  1  0
 12  8  1  0
 18 13  1  0
  1 24  1  0
  1 25  1  0
  1 26  1  0
  2 27  1  0
  3 28  1  0
  3 29  1  0
  3 30  1  0
  7 31  1  0
  7 32  1  0
  8 33  1  6
  9 34  1  6
 10 35  1  1
 11 36  1  6
 14 37  1  0
 15 38  1  0
 20 39  1  0
 21 40  1  0
 22 41  1  0
 23 42  1  0
M  END
