
     RDKit          3D

 26 28  0  0  0  0  0  0  0  0999 V2000
 -114.3640   58.8510   32.6380 C   0  0  0  0  0  0  0  0  0  0  0  0
 -113.9210   59.4000   31.3770 N   0  0  0  0  0  0  0  0  0  0  0  0
 -114.1260   58.7960   30.1640 C   0  0  0  0  0  0  0  0  0  0  0  0
 -113.5990   59.4850   29.1780 N   0  0  0  0  0  0  0  0  0  0  0  0
 -113.0300   60.5920   29.7810 C   0  0  0  0  0  0  0  0  0  0  0  0
 -113.2310   60.5690   31.1490 C   0  0  0  0  0  0  0  0  0  0  0  0
 -112.7430   61.6270   32.4370 S   0  0  0  0  0  0  0  0  0  0  0  0
 -113.8610   62.9560   32.1250 C   0  0  0  0  0  0  0  0  0  0  0  0
 -115.1320   62.8790   32.5720 N   0  0  0  0  0  0  0  0  0  0  0  0
 -115.9420   63.9340   32.3530 C   0  0  0  0  0  0  0  0  0  0  0  0
 -115.6530   65.0790   31.7240 N   0  0  0  0  0  0  0  0  0  0  0  0
 -114.3850   65.1280   31.2820 C   0  0  0  0  0  0  0  0  0  0  0  0
 -113.4780   64.1010   31.4620 C   0  0  0  0  0  0  0  0  0  0  0  0
 -112.3300   64.5440   30.8620 N   0  0  0  0  0  0  0  0  0  0  0  0
 -112.5850   65.7880   30.3550 C   0  0  0  0  0  0  0  0  0  0  0  0
 -113.8190   66.1700   30.6000 N   0  0  0  0  0  0  0  0  0  0  0  0
 -112.3460   61.5810   28.9770 N   0  0  0  0  0  0  0  0  0  0  0  0
 -113.0390   62.4710   28.4560 O   0  0  0  0  0  0  0  0  0  0  0  0
 -111.1190   61.4740   28.8530 O   0  0  0  0  0  0  0  0  0  0  0  0
 -113.9080   59.4161   33.4643 H   0  0  0  0  0  0  0  0  0  0  0  0
 -115.4596   58.9235   32.7048 H   0  0  0  0  0  0  0  0  0  0  0  0
 -114.0616   57.7955   32.7048 H   0  0  0  0  0  0  0  0  0  0  0  0
 -114.6672   57.8475   30.0321 H   0  0  0  0  0  0  0  0  0  0  0  0
 -116.9678   63.8422   32.7393 H   0  0  0  0  0  0  0  0  0  0  0  0
 -111.4373   64.0335   30.8032 H   0  0  0  0  0  0  0  0  0  0  0  0
 -111.8479   66.3950   29.8089 H   0  0  0  0  0  0  0  0  0  0  0  0
  1  2  1  0
  2  3  1  0
  3  4  2  0
  4  5  1  0
  5  6  2  0
  6  7  1  0
  7  8  1  0
  8  9  2  0
  9 10  1  0
 10 11  2  0
 11 12  1  0
 12 13  2  0
 13 14  1  0
 14 15  1  0
 15 16  2  0
  5 17  1  0
 17 18  2  0
 17 19  1  0
  6  2  1  0
 13  8  1  0
 16 12  1  0
  1 20  1  0
  1 21  1  0
  1 22  1  0
  3 23  1  0
 10 24  1  0
 14 25  1  0
 15 26  1  0
M  CHG  2  17   1  19  -1
M  END
