
     RDKit          3D

 43 45  0  0  0  0  0  0  0  0999 V2000
   -0.3520    0.9550   10.0320 C   0  0  0  0  0  0  0  0  0  0  0  0
   -0.9370    0.7830   11.3980 C   0  0  0  0  0  0  0  0  0  0  0  0
   -0.8000    1.7760   12.3520 C   0  0  0  0  0  0  0  0  0  0  0  0
   -1.2920    1.6960   13.6060 N   0  0  0  0  0  0  0  0  0  0  0  0
   -1.9950    0.5870   13.9530 C   0  0  0  0  0  0  0  0  0  0  0  0
   -2.1910   -0.4840   13.0680 C   0  0  0  0  0  0  0  0  0  0  0  0
   -1.6000   -0.3800   11.7990 C   0  0  0  0  0  0  0  0  0  0  0  0
   -1.7340   -1.4090   10.8980 O   0  0  0  0  0  0  0  0  0  0  0  0
   -0.6810   -2.3600   11.0700 C   0  0  0  0  0  0  0  0  0  0  0  0
   -2.9500   -1.7180   13.4700 C   0  0  0  0  0  0  0  0  0  0  0  0
   -2.5460    0.5900   15.3570 C   0  0  0  0  0  0  0  0  0  0  0  0
   -1.5480    1.6290   16.4680 S   0  0  0  0  0  0  0  0  0  0  0  0
   -1.1400    0.8330   17.6760 O   0  0  0  0  0  0  0  0  0  0  0  0
   -2.9030    2.6670   17.0450 C   0  0  0  0  0  0  0  0  0  0  0  0
   -3.0540    3.9430   16.7630 N   0  0  0  0  0  0  0  0  0  0  0  0
   -4.2070    4.3120   17.4130 C   0  0  0  0  0  0  0  0  0  0  0  0
   -4.7630    3.2370   18.0980 C   0  0  0  0  0  0  0  0  0  0  0  0
   -3.9060    2.1980   17.8470 N   0  0  0  0  0  0  0  0  0  0  0  0
   -5.9410    3.3310   18.8420 C   0  0  0  0  0  0  0  0  0  0  0  0
   -6.5760    4.5800   18.8870 C   0  0  0  0  0  0  0  0  0  0  0  0
   -6.0360    5.6780   18.2070 C   0  0  0  0  0  0  0  0  0  0  0  0
   -4.8490    5.5560   17.4650 C   0  0  0  0  0  0  0  0  0  0  0  0
   -7.7240    4.5930   19.6360 O   0  0  0  0  0  0  0  0  0  0  0  0
   -7.9890    5.7660   20.3940 C   0  0  0  0  0  0  0  0  0  0  0  0
    0.7000    1.2643   10.1199 H   0  0  0  0  0  0  0  0  0  0  0  0
   -0.4095    0.0019    9.4858 H   0  0  0  0  0  0  0  0  0  0  0  0
   -0.9162    1.7253    9.4858 H   0  0  0  0  0  0  0  0  0  0  0  0
   -0.2551    2.6890   12.0701 H   0  0  0  0  0  0  0  0  0  0  0  0
   -0.5035   -2.5203   12.1437 H   0  0  0  0  0  0  0  0  0  0  0  0
   -0.9665   -3.3123   10.5993 H   0  0  0  0  0  0  0  0  0  0  0  0
    0.2374   -1.9793   10.5993 H   0  0  0  0  0  0  0  0  0  0  0  0
   -2.9898   -1.7827   14.5674 H   0  0  0  0  0  0  0  0  0  0  0  0
   -3.9728   -1.6665   13.0684 H   0  0  0  0  0  0  0  0  0  0  0  0
   -2.4427   -2.6076   13.0684 H   0  0  0  0  0  0  0  0  0  0  0  0
   -3.5753    0.9773   15.3354 H   0  0  0  0  0  0  0  0  0  0  0  0
   -2.5215   -0.4417   15.7377 H   0  0  0  0  0  0  0  0  0  0  0  0
   -4.0005    1.2349   18.1997 H   0  0  0  0  0  0  0  0  0  0  0  0
   -6.3541    2.4599   19.3716 H   0  0  0  0  0  0  0  0  0  0  0  0
   -6.5483    6.6503   18.2542 H   0  0  0  0  0  0  0  0  0  0  0  0
   -4.4306    6.4234   16.9335 H   0  0  0  0  0  0  0  0  0  0  0  0
   -7.9355    5.5291   21.4669 H   0  0  0  0  0  0  0  0  0  0  0  0
   -7.2422    6.5362   20.1508 H   0  0  0  0  0  0  0  0  0  0  0  0
   -8.9944    6.1404   20.1508 H   0  0  0  0  0  0  0  0  0  0  0  0
  1  2  1  0
  2  3  2  0
  3  4  1  0
  4  5  2  0
  5  6  1  0
  6  7  2  0
  7  8  1  0
  8  9  1  0
  6 10  1  0
  5 11  1  0
 11 12  1  0
 12 13  2  0
 12 14  1  0
 14 15  2  0
 15 16  1  0
 16 17  2  0
 17 18  1  0
 17 19  1  0
 19 20  2  0
 20 21  1  0
 21 22  2  0
 20 23  1  0
 23 24  1  0
  7  2  1  0
 18 14  1  0
 22 16  1  0
  1 25  1  0
  1 26  1  0
  1 27  1  0
  3 28  1  0
  9 29  1  0
  9 30  1  0
  9 31  1  0
 10 32  1  0
 10 33  1  0
 10 34  1  0
 11 35  1  0
 11 36  1  0
 18 37  1  0
 19 38  1  0
 21 39  1  0
 22 40  1  0
 24 41  1  0
 24 42  1  0
 24 43  1  0
M  END
