
     RDKit          3D

 54 57  0  0  0  0  0  0  0  0999 V2000
  -20.5170   68.8330   34.3680 C   0  0  0  0  0  0  0  0  0  0  0  0
  -19.5260   69.6400   33.4900 C   0  0  2  0  0  0  0  0  0  0  0  0
  -19.9900   71.1060   33.3510 C   0  0  0  0  0  0  0  0  0  0  0  0
  -21.2370   71.2940   32.4560 C   0  0  1  0  0  0  0  0  0  0  0  0
  -21.1450   70.5590   31.0830 C   0  0  1  0  0  0  0  0  0  0  0  0
  -20.6650   69.0730   31.2410 C   0  0  2  0  0  0  0  0  0  0  0  0
  -19.3670   69.0660   32.0640 C   0  0  2  0  0  0  0  0  0  0  0  0
  -18.6370   67.7460   32.2930 C   0  0  0  0  0  0  0  0  0  0  0  0
  -17.6860   68.0310   33.4760 C   0  0  0  0  0  0  0  0  0  0  0  0
  -18.0710   69.4280   34.0170 C   0  0  2  0  0  0  0  0  0  0  0  0
  -17.9030   69.6670   35.5270 C   0  0  0  0  0  0  0  0  0  0  0  0
  -17.6970   68.7080   36.2850 O   0  0  0  0  0  0  0  0  0  0  0  0
  -18.0320   71.0730   36.0920 C   0  0  0  0  0  0  0  0  0  0  0  0
  -16.7890   71.7640   36.0590 O   0  0  0  0  0  0  0  0  0  0  0  0
  -17.1780   70.3670   33.3870 O   0  0  0  0  0  0  0  0  0  0  0  0
  -20.4310   68.4150   29.8680 C   0  0  0  0  0  0  0  0  0  0  0  0
  -21.6370   68.5380   28.9450 C   0  0  0  0  0  0  0  0  0  0  0  0
  -22.0500   69.9810   28.8190 C   0  0  0  0  0  0  0  0  0  0  0  0
  -22.0590   70.5860   27.6180 C   0  0  0  0  0  0  0  0  0  0  0  0
  -22.4020   72.0140   27.4650 C   0  0  0  0  0  0  0  0  0  0  0  0
  -22.4150   72.5510   26.3650 O   0  0  0  0  0  0  0  0  0  0  0  0
  -22.7190   72.7670   28.6920 C   0  0  0  0  0  0  0  0  0  0  0  0
  -22.7130   72.1670   29.8900 C   0  0  0  0  0  0  0  0  0  0  0  0
  -22.3970   70.6960   30.1340 C   0  0  2  0  0  0  0  0  0  0  0  0
  -23.6920   70.0640   30.6920 C   0  0  0  0  0  0  0  0  0  0  0  0
  -22.4020   70.9660   33.2000 O   0  0  0  0  0  0  0  0  0  0  0  0
  -20.2960   69.0130   35.4304 H   0  0  0  0  0  0  0  0  0  0  0  0
  -21.5462   69.1532   34.1482 H   0  0  0  0  0  0  0  0  0  0  0  0
  -20.4119   67.7603   34.1482 H   0  0  0  0  0  0  0  0  0  0  0  0
  -20.2246   71.4902   34.3547 H   0  0  0  0  0  0  0  0  0  0  0  0
  -19.1678   71.6532   32.8666 H   0  0  0  0  0  0  0  0  0  0  0  0
  -21.2954   72.3545   32.1697 H   0  0  0  0  0  0  0  0  0  0  0  0
  -20.3642   71.1138   30.5421 H   0  0  0  0  0  0  0  0  0  0  0  0
  -21.4442   68.4919   31.7560 H   0  0  0  0  0  0  0  0  0  0  0  0
  -18.7706   69.6882   31.3805 H   0  0  0  0  0  0  0  0  0  0  0  0
  -19.3486   66.9475   32.5497 H   0  0  0  0  0  0  0  0  0  0  0  0
  -18.0990   67.4042   31.3965 H   0  0  0  0  0  0  0  0  0  0  0  0
  -17.8151   67.2703   34.2600 H   0  0  0  0  0  0  0  0  0  0  0  0
  -16.6333   68.0020   33.1582 H   0  0  0  0  0  0  0  0  0  0  0  0
  -18.7677   71.6320   35.4951 H   0  0  0  0  0  0  0  0  0  0  0  0
  -18.3561   70.9954   37.1403 H   0  0  0  0  0  0  0  0  0  0  0  0
  -16.4817   71.9348   36.9845 H   0  0  0  0  0  0  0  0  0  0  0  0
  -16.6922   70.8778   34.0821 H   0  0  0  0  0  0  0  0  0  0  0  0
  -19.5688   68.9003   29.3873 H   0  0  0  0  0  0  0  0  0  0  0  0
  -20.2508   67.3434   30.0390 H   0  0  0  0  0  0  0  0  0  0  0  0
  -21.3752   68.1468   27.9508 H   0  0  0  0  0  0  0  0  0  0  0  0
  -22.4728   67.9608   29.3673 H   0  0  0  0  0  0  0  0  0  0  0  0
  -21.8033   69.9997   26.7231 H   0  0  0  0  0  0  0  0  0  0  0  0
  -22.9641   73.8371   28.6231 H   0  0  0  0  0  0  0  0  0  0  0  0
  -22.9554   72.7851   30.7671 H   0  0  0  0  0  0  0  0  0  0  0  0
  -23.6627   70.0783   31.7915 H   0  0  0  0  0  0  0  0  0  0  0  0
  -24.5615   70.6391   30.3408 H   0  0  0  0  0  0  0  0  0  0  0  0
  -23.7737   69.0248   30.3408 H   0  0  0  0  0  0  0  0  0  0  0  0
  -22.2021   71.0223   34.1680 H   0  0  0  0  0  0  0  0  0  0  0  0
  2  1  1  1
  2  3  1  0
  3  4  1  0
  4  5  1  0
  5  6  1  0
  6  7  1  0
  7  8  1  0
  8  9  1  0
  9 10  1  0
 10 11  1  0
 11 12  2  0
 11 13  1  0
 13 14  1  0
 10 15  1  6
  6 16  1  0
 16 17  1  0
 17 18  1  0
 18 19  2  0
 19 20  1  0
 20 21  2  0
 20 22  1  0
 22 23  2  0
 23 24  1  0
 24 25  1  1
  4 26  1  0
  7  2  1  0
 10  2  1  0
 24  5  1  0
 24 18  1  0
  1 27  1  0
  1 28  1  0
  1 29  1  0
  3 30  1  0
  3 31  1  0
  4 32  1  6
  5 33  1  6
  6 34  1  1
  7 35  1  6
  8 36  1  0
  8 37  1  0
  9 38  1  0
  9 39  1  0
 13 40  1  0
 13 41  1  0
 14 42  1  0
 15 43  1  0
 16 44  1  0
 16 45  1  0
 17 46  1  0
 17 47  1  0
 19 48  1  0
 22 49  1  0
 23 50  1  0
 25 51  1  0
 25 52  1  0
 25 53  1  0
 26 54  1  0
M  END
