
     RDKit          3D

 39 42  0  0  0  0  0  0  0  0999 V2000
 -128.7390   64.6290   38.0090 C   0  0  0  0  0  0  0  0  0  0  0  0
 -129.6920   64.8120   36.8650 C   0  0  0  0  0  0  0  0  0  0  0  0
 -128.3260   64.2370   36.6190 C   0  0  0  0  0  0  0  0  0  0  0  0
 -128.1530   62.8350   36.2660 N   0  0  0  0  0  0  0  0  0  0  0  0
 -128.3770   62.4180   34.9410 C   0  0  0  0  0  0  0  0  0  0  0  0
 -127.3320   62.3980   34.0030 C   0  0  0  0  0  0  0  0  0  0  0  0
 -127.6530   61.9750   32.7270 C   0  0  0  0  0  0  0  0  0  0  0  0
 -128.8520   61.5700   32.2850 N   0  0  0  0  0  0  0  0  0  0  0  0
 -129.7870   61.6400   33.2450 C   0  0  0  0  0  0  0  0  0  0  0  0
 -129.6090   62.0180   34.5210 N   0  0  0  0  0  0  0  0  0  0  0  0
 -131.0620   61.2360   32.8990 N   0  0  0  0  0  0  0  0  0  0  0  0
 -126.4820   62.0550   32.0220 N   0  0  0  0  0  0  0  0  0  0  0  0
 -125.5110   62.4870   32.8900 C   0  0  0  0  0  0  0  0  0  0  0  0
 -125.9890   62.7070   34.0970 N   0  0  0  0  0  0  0  0  0  0  0  0
 -126.3220   61.6920   30.6260 C   0  0  2  0  0  0  0  0  0  0  0  0
 -126.0000   60.2000   30.4410 C   0  0  0  0  0  0  0  0  0  0  0  0
 -125.0330   60.1230   29.2460 C   0  0  1  0  0  0  0  0  0  0  0  0
 -124.4600   61.5080   29.1970 C   0  0  0  0  0  0  0  0  0  0  0  0
 -125.1670   62.3650   29.9430 C   0  0  0  0  0  0  0  0  0  0  0  0
 -123.9770   59.0280   29.4080 C   0  0  0  0  0  0  0  0  0  0  0  0
 -123.7820   58.7200   30.7830 O   0  0  0  0  0  0  0  0  0  0  0  0
 -128.2836   65.5066   38.4910 H   0  0  0  0  0  0  0  0  0  0  0  0
 -128.7808   64.1164   38.9814 H   0  0  0  0  0  0  0  0  0  0  0  0
 -130.5817   64.1704   36.7825 H   0  0  0  0  0  0  0  0  0  0  0  0
 -130.2643   65.6584   36.4575 H   0  0  0  0  0  0  0  0  0  0  0  0
 -127.4876   64.4882   35.9527 H   0  0  0  0  0  0  0  0  0  0  0  0
 -127.8681   62.1521   36.9825 H   0  0  0  0  0  0  0  0  0  0  0  0
 -131.8195   61.2684   33.5962 H   0  0  0  0  0  0  0  0  0  0  0  0
 -131.2551   60.9024   31.9438 H   0  0  0  0  0  0  0  0  0  0  0  0
 -124.4571   62.6324   32.6103 H   0  0  0  0  0  0  0  0  0  0  0  0
 -127.2882   61.9945   30.1959 H   0  0  0  0  0  0  0  0  0  0  0  0
 -125.5228   59.7963   31.3462 H   0  0  0  0  0  0  0  0  0  0  0  0
 -126.9105   59.6091   30.2629 H   0  0  0  0  0  0  0  0  0  0  0  0
 -125.5251   59.8373   28.3046 H   0  0  0  0  0  0  0  0  0  0  0  0
 -123.5669   61.7858   28.6181 H   0  0  0  0  0  0  0  0  0  0  0  0
 -124.9302   63.4345   30.0437 H   0  0  0  0  0  0  0  0  0  0  0  0
 -124.3103   58.1232   28.8786 H   0  0  0  0  0  0  0  0  0  0  0  0
 -123.0264   59.3870   28.9867 H   0  0  0  0  0  0  0  0  0  0  0  0
 -124.2194   59.4108   31.3412 H   0  0  0  0  0  0  0  0  0  0  0  0
  1  2  1  0
  2  3  1  0
  3  4  1  0
  4  5  1  0
  5  6  2  0
  6  7  1  0
  7  8  2  0
  8  9  1  0
  9 10  2  0
  9 11  1  0
  7 12  1  0
 12 13  1  0
 13 14  2  0
 12 15  1  0
 15 16  1  0
 16 17  1  0
 17 18  1  0
 18 19  2  0
 17 20  1  0
 20 21  1  0
  3  1  1  0
 10  5  1  0
 14  6  1  0
 19 15  1  0
  1 22  1  0
  1 23  1  0
  2 24  1  0
  2 25  1  0
  3 26  1  0
  4 27  1  0
 11 28  1  0
 11 29  1  0
 13 30  1  0
 15 31  1  6
 16 32  1  0
 16 33  1  0
 17 34  1  6
 18 35  1  0
 19 36  1  0
 20 37  1  0
 20 38  1  0
 21 39  1  0
M  END
