
     RDKit          3D

 41 44  0  0  0  0  0  0  0  0999 V2000
   -7.8410   68.7090   36.2880 C   0  0  0  0  0  0  0  0  0  0  0  0
   -9.0030   68.2020   35.4350 C   0  0  0  0  0  0  0  0  0  0  0  0
   -8.7150   66.7310   35.1550 C   0  0  0  0  0  0  0  0  0  0  0  0
   -7.1990   66.5990   35.3100 C   0  0  0  0  0  0  0  0  0  0  0  0
   -6.9320   67.5060   36.5160 C   0  0  0  0  0  0  0  0  0  0  0  0
   -6.7150   65.1460   35.5100 C   0  0  1  0  0  0  0  0  0  0  0  0
   -7.6590   64.2500   36.3290 C   0  0  0  0  0  0  0  0  0  0  0  0
   -7.0920   62.9450   36.6970 C   0  0  0  0  0  0  0  0  0  0  0  0
   -6.6000   61.9170   36.9170 N   0  0  0  0  0  0  0  0  0  0  0  0
   -6.3580   64.5110   34.2400 N   0  0  0  0  0  0  0  0  0  0  0  0
   -7.2230   64.0930   33.2660 C   0  0  0  0  0  0  0  0  0  0  0  0
   -6.4460   63.5590   32.2590 C   0  0  0  0  0  0  0  0  0  0  0  0
   -5.1260   63.6800   32.7500 C   0  0  0  0  0  0  0  0  0  0  0  0
   -5.0720   64.2850   33.9390 N   0  0  0  0  0  0  0  0  0  0  0  0
   -6.9050   62.9420   31.0370 C   0  0  0  0  0  0  0  0  0  0  0  0
   -7.1440   61.5680   30.9070 C   0  0  0  0  0  0  0  0  0  0  0  0
   -7.1020   60.3980   31.7200 C   0  0  0  0  0  0  0  0  0  0  0  0
   -7.4810   59.3240   30.9410 C   0  0  0  0  0  0  0  0  0  0  0  0
   -7.7640   59.7990   29.6870 N   0  0  0  0  0  0  0  0  0  0  0  0
   -7.5770   61.1530   29.6550 C   0  0  0  0  0  0  0  0  0  0  0  0
   -7.7910   61.9190   28.5740 N   0  0  0  0  0  0  0  0  0  0  0  0
   -7.5470   63.2140   28.8290 C   0  0  0  0  0  0  0  0  0  0  0  0
   -7.1300   63.7660   29.9830 N   0  0  0  0  0  0  0  0  0  0  0  0
   -7.2966   69.5047   35.7584 H   0  0  0  0  0  0  0  0  0  0  0  0
   -8.1942   69.1336   37.2393 H   0  0  0  0  0  0  0  0  0  0  0  0
   -9.9517   68.3075   35.9816 H   0  0  0  0  0  0  0  0  0  0  0  0
   -9.0960   68.7770   34.5018 H   0  0  0  0  0  0  0  0  0  0  0  0
   -9.2369   66.0883   35.8792 H   0  0  0  0  0  0  0  0  0  0  0  0
   -9.0613   66.4202   34.1583 H   0  0  0  0  0  0  0  0  0  0  0  0
   -6.6415   66.8898   34.4074 H   0  0  0  0  0  0  0  0  0  0  0  0
   -7.1909   66.9937   37.4543 H   0  0  0  0  0  0  0  0  0  0  0  0
   -5.8727   67.7891   36.6039 H   0  0  0  0  0  0  0  0  0  0  0  0
   -5.8089   65.2463   36.1256 H   0  0  0  0  0  0  0  0  0  0  0  0
   -7.9228   64.7835   37.2541 H   0  0  0  0  0  0  0  0  0  0  0  0
   -8.5295   64.0442   35.6888 H   0  0  0  0  0  0  0  0  0  0  0  0
   -8.3203   64.1679   33.2826 H   0  0  0  0  0  0  0  0  0  0  0  0
   -4.2393   63.3152   32.2109 H   0  0  0  0  0  0  0  0  0  0  0  0
   -6.8175   60.3582   32.7818 H   0  0  0  0  0  0  0  0  0  0  0  0
   -7.5445   58.2755   31.2676 H   0  0  0  0  0  0  0  0  0  0  0  0
   -8.0709   59.2235   28.8898 H   0  0  0  0  0  0  0  0  0  0  0  0
   -7.7077   63.9093   27.9919 H   0  0  0  0  0  0  0  0  0  0  0  0
  1  2  1  0
  2  3  1  0
  3  4  1  0
  4  5  1  0
  4  6  1  0
  6  7  1  0
  7  8  1  0
  8  9  3  0
  6 10  1  0
 10 11  1  0
 11 12  2  0
 12 13  1  0
 13 14  2  0
 12 15  1  0
 15 16  2  0
 16 17  1  0
 17 18  2  0
 18 19  1  0
 19 20  1  0
 20 21  2  0
 21 22  1  0
 22 23  2  0
  5  1  1  0
 14 10  1  0
 23 15  1  0
 20 16  1  0
  1 24  1  0
  1 25  1  0
  2 26  1  0
  2 27  1  0
  3 28  1  0
  3 29  1  0
  4 30  1  0
  5 31  1  0
  5 32  1  0
  6 33  1  1
  7 34  1  0
  7 35  1  0
 11 36  1  0
 13 37  1  0
 17 38  1  0
 18 39  1  0
 19 40  1  0
 22 41  1  0
M  END
