
     RDKit          3D

 41 44  0  0  0  0  0  0  0  0999 V2000
 -124.7500   64.3560   29.8370 C   0  0  0  0  0  0  0  0  0  0  0  0
 -124.0410   63.2490   29.0580 C   0  0  0  0  0  0  0  0  0  0  0  0
 -124.7800   61.9560   29.3860 C   0  0  0  0  0  0  0  0  0  0  0  0
 -125.4520   62.2290   30.7340 C   0  0  0  0  0  0  0  0  0  0  0  0
 -125.9100   63.6820   30.5620 C   0  0  0  0  0  0  0  0  0  0  0  0
 -126.6020   61.2540   31.0670 C   0  0  1  0  0  0  0  0  0  0  0  0
 -126.1930   59.7770   31.1880 C   0  0  0  0  0  0  0  0  0  0  0  0
 -124.8990   59.5550   31.8500 C   0  0  0  0  0  0  0  0  0  0  0  0
 -123.8410   59.4090   32.3040 N   0  0  0  0  0  0  0  0  0  0  0  0
 -127.3610   61.6860   32.2410 N   0  0  0  0  0  0  0  0  0  0  0  0
 -126.8450   62.0860   33.4440 C   0  0  0  0  0  0  0  0  0  0  0  0
 -127.9230   62.3990   34.2450 C   0  0  0  0  0  0  0  0  0  0  0  0
 -129.0430   62.1200   33.4300 C   0  0  0  0  0  0  0  0  0  0  0  0
 -128.7000   61.7160   32.2040 N   0  0  0  0  0  0  0  0  0  0  0  0
 -127.8900   62.8250   35.6250 C   0  0  0  0  0  0  0  0  0  0  0  0
 -128.4660   64.0170   36.0800 C   0  0  0  0  0  0  0  0  0  0  0  0
 -129.2150   65.1080   35.5520 C   0  0  0  0  0  0  0  0  0  0  0  0
 -129.4850   65.9810   36.5860 C   0  0  0  0  0  0  0  0  0  0  0  0
 -128.9370   65.4550   37.7270 N   0  0  0  0  0  0  0  0  0  0  0  0
 -128.3290   64.2640   37.4400 C   0  0  0  0  0  0  0  0  0  0  0  0
 -127.7170   63.4910   38.3490 N   0  0  0  0  0  0  0  0  0  0  0  0
 -127.2250   62.3710   37.7960 C   0  0  0  0  0  0  0  0  0  0  0  0
 -127.2800   61.9930   36.5060 N   0  0  0  0  0  0  0  0  0  0  0  0
 -124.0613   64.8150   30.5615 H   0  0  0  0  0  0  0  0  0  0  0  0
 -125.1021   65.1566   29.1698 H   0  0  0  0  0  0  0  0  0  0  0  0
 -124.0892   63.4521   27.9780 H   0  0  0  0  0  0  0  0  0  0  0  0
 -122.9780   63.1835   29.3332 H   0  0  0  0  0  0  0  0  0  0  0  0
 -125.5320   61.7319   28.6151 H   0  0  0  0  0  0  0  0  0  0  0  0
 -124.1061   61.0874   29.4232 H   0  0  0  0  0  0  0  0  0  0  0  0
 -124.7831   62.0764   31.5938 H   0  0  0  0  0  0  0  0  0  0  0  0
 -126.8290   63.7328   29.9596 H   0  0  0  0  0  0  0  0  0  0  0  0
 -126.1459   64.1660   31.5212 H   0  0  0  0  0  0  0  0  0  0  0  0
 -127.2556   61.2992   30.1834 H   0  0  0  0  0  0  0  0  0  0  0  0
 -126.9686   59.2519   31.7648 H   0  0  0  0  0  0  0  0  0  0  0  0
 -126.0886   59.3961   30.1613 H   0  0  0  0  0  0  0  0  0  0  0  0
 -125.7813   62.1459   33.7176 H   0  0  0  0  0  0  0  0  0  0  0  0
 -130.0844   62.2242   33.7685 H   0  0  0  0  0  0  0  0  0  0  0  0
 -129.5239   65.2326   34.5036 H   0  0  0  0  0  0  0  0  0  0  0  0
 -130.0397   66.9278   36.5086 H   0  0  0  0  0  0  0  0  0  0  0  0
 -128.9770   65.8908   38.6594 H   0  0  0  0  0  0  0  0  0  0  0  0
 -126.7147   61.6779   38.4811 H   0  0  0  0  0  0  0  0  0  0  0  0
  1  2  1  0
  2  3  1  0
  3  4  1  0
  4  5  1  0
  4  6  1  0
  6  7  1  0
  7  8  1  0
  8  9  3  0
  6 10  1  0
 10 11  1  0
 11 12  2  0
 12 13  1  0
 13 14  2  0
 12 15  1  0
 15 16  2  0
 16 17  1  0
 17 18  2  0
 18 19  1  0
 19 20  1  0
 20 21  2  0
 21 22  1  0
 22 23  2  0
  5  1  1  0
 14 10  1  0
 23 15  1  0
 20 16  1  0
  1 24  1  0
  1 25  1  0
  2 26  1  0
  2 27  1  0
  3 28  1  0
  3 29  1  0
  4 30  1  0
  5 31  1  0
  5 32  1  0
  6 33  1  6
  7 34  1  0
  7 35  1  0
 11 36  1  0
 13 37  1  0
 17 38  1  0
 18 39  1  0
 19 40  1  0
 22 41  1  0
M  END
