
     RDKit          3D

 29 30  0  0  0  0  0  0  0  0999 V2000
   -3.1290    2.5310   14.3800 C   0  0  0  0  0  0  0  0  0  0  0  0
   -3.9240    3.3490   15.1920 C   0  0  0  0  0  0  0  0  0  0  0  0
   -3.6730    3.4600   16.5640 C   0  0  0  0  0  0  0  0  0  0  0  0
   -2.5990    2.7290   17.1100 C   0  0  0  0  0  0  0  0  0  0  0  0
   -1.7970    1.9090   16.3110 C   0  0  0  0  0  0  0  0  0  0  0  0
   -2.0690    1.8140   14.9430 C   0  0  0  0  0  0  0  0  0  0  0  0
   -1.2340    0.9560   14.0940 N   0  0  0  0  0  0  0  0  0  0  0  0
   -0.2160    1.4560   13.5960 O   0  0  0  0  0  0  0  0  0  0  0  0
   -1.5960   -0.2160   13.9250 O   0  0  0  0  0  0  0  0  0  0  0  0
   -2.2230    2.8140   18.7990 Cl  0  0  0  0  0  0  0  0  0  0  0  0
   -4.4460    4.2730   17.4270 N   0  0  0  0  0  0  0  0  0  0  0  0
   -5.8030    4.2230   17.6710 C   0  0  0  0  0  0  0  0  0  0  0  0
   -6.5860    3.4320   17.1540 O   0  0  0  0  0  0  0  0  0  0  0  0
   -6.3450    5.2260   18.6520 C   0  0  0  0  0  0  0  0  0  0  0  0
   -7.2610    4.9300   19.6750 C   0  0  0  0  0  0  0  0  0  0  0  0
   -7.7120    5.9270   20.5450 C   0  0  0  0  0  0  0  0  0  0  0  0
   -7.2510    7.2360   20.4020 C   0  0  0  0  0  0  0  0  0  0  0  0
   -6.3430    7.5420   19.3920 C   0  0  0  0  0  0  0  0  0  0  0  0
   -5.8910    6.5510   18.5220 C   0  0  0  0  0  0  0  0  0  0  0  0
   -5.7770    9.1580   19.2190 Cl  0  0  0  0  0  0  0  0  0  0  0  0
   -7.7330    3.6550   19.8440 O   0  0  0  0  0  0  0  0  0  0  0  0
   -3.3377    2.4528   13.3028 H   0  0  0  0  0  0  0  0  0  0  0  0
   -4.7569    3.9118   14.7454 H   0  0  0  0  0  0  0  0  0  0  0  0
   -0.9622    1.3454   16.7532 H   0  0  0  0  0  0  0  0  0  0  0  0
   -3.9263    4.9985   17.9413 H   0  0  0  0  0  0  0  0  0  0  0  0
   -8.4294    5.6797   21.3413 H   0  0  0  0  0  0  0  0  0  0  0  0
   -7.6036    8.0232   21.0846 H   0  0  0  0  0  0  0  0  0  0  0  0
   -5.1740    6.8070   17.7280 H   0  0  0  0  0  0  0  0  0  0  0  0
   -8.3784    3.4580   20.5684 H   0  0  0  0  0  0  0  0  0  0  0  0
  1  2  2  0
  2  3  1  0
  3  4  2  0
  4  5  1  0
  5  6  2  0
  6  7  1  0
  7  8  2  0
  7  9  1  0
  4 10  1  0
  3 11  1  0
 11 12  1  0
 12 13  2  0
 12 14  1  0
 14 15  2  0
 15 16  1  0
 16 17  2  0
 17 18  1  0
 18 19  2  0
 18 20  1  0
 15 21  1  0
  6  1  1  0
 19 14  1  0
  1 22  1  0
  2 23  1  0
  5 24  1  0
 11 25  1  0
 16 26  1  0
 17 27  1  0
 19 28  1  0
 21 29  1  0
M  CHG  2   7   1   9  -1
M  END
