
     RDKit          3D

 65 67  0  0  0  0  0  0  0  0999 V2000
  -24.2200   71.7550   32.1550 C   0  0  0  0  0  0  0  0  0  0  0  0
  -23.0400   71.8970   33.1050 C   0  0  0  0  0  0  0  0  0  0  0  0
  -22.0270   72.9610   32.6570 C   0  0  2  0  0  0  0  0  0  0  0  0
  -22.3560   73.5570   31.2920 C   0  0  0  0  0  0  0  0  0  0  0  0
  -20.6330   72.3630   32.6090 C   0  0  0  0  0  0  0  0  0  0  0  0
  -19.6340   72.9350   32.1980 O   0  0  0  0  0  0  0  0  0  0  0  0
  -20.6620   71.0890   33.0950 O   0  0  0  0  0  0  0  0  0  0  0  0
  -19.4910   70.2730   32.8480 C   0  0  1  0  0  0  0  0  0  0  0  0
  -18.6510   70.2690   34.1400 C   0  0  0  0  0  0  0  0  0  0  0  0
  -17.9730   68.9340   34.4430 C   0  0  2  0  0  0  0  0  0  0  0  0
  -19.0020   67.8400   34.3900 C   0  0  0  0  0  0  0  0  0  0  0  0
  -19.9280   67.8090   33.4150 C   0  0  0  0  0  0  0  0  0  0  0  0
  -19.9190   68.8640   32.3150 C   0  0  1  0  0  0  0  0  0  0  0  0
  -21.2480   68.8900   31.4830 C   0  0  2  0  0  0  0  0  0  0  0  0
  -21.7190   67.4560   31.1040 C   0  0  2  0  0  0  0  0  0  0  0  0
  -21.6990   66.5480   32.3040 C   0  0  0  0  0  0  0  0  0  0  0  0
  -20.8870   66.7290   33.3510 C   0  0  0  0  0  0  0  0  0  0  0  0
  -20.9240   66.8000   29.9720 C   0  0  0  0  0  0  0  0  0  0  0  0
  -21.1440   69.8400   30.2610 C   0  0  0  0  0  0  0  0  0  0  0  0
  -22.4740   70.0190   29.5210 C   0  0  0  0  0  0  0  0  0  0  0  0
  -22.3130   70.4800   28.0650 C   0  0  2  0  0  0  0  0  0  0  0  0
  -22.8050   71.9060   27.8290 C   0  0  0  0  0  0  0  0  0  0  0  0
  -22.7670   72.2550   26.3400 C   0  0  2  0  0  0  0  0  0  0  0  0
  -22.5090   71.0540   25.4460 C   0  0  0  0  0  0  0  0  0  0  0  0
  -23.2520   69.8500   25.9380 C   0  0  0  0  0  0  0  0  0  0  0  0
  -23.9120   69.1310   25.1970 O   0  0  0  0  0  0  0  0  0  0  0  0
  -23.1100   69.5820   27.2590 O   0  0  0  0  0  0  0  0  0  0  0  0
  -21.7240   73.2100   26.1360 O   0  0  0  0  0  0  0  0  0  0  0  0
  -17.2860   68.9860   35.8090 C   0  0  0  0  0  0  0  0  0  0  0  0
  -25.1472   71.6434   32.7362 H   0  0  0  0  0  0  0  0  0  0  0  0
  -24.2902   72.6512   31.5210 H   0  0  0  0  0  0  0  0  0  0  0  0
  -24.0756   70.8678   31.5210 H   0  0  0  0  0  0  0  0  0  0  0  0
  -23.4224   72.1747   34.0983 H   0  0  0  0  0  0  0  0  0  0  0  0
  -22.5142   70.9309   33.1198 H   0  0  0  0  0  0  0  0  0  0  0  0
  -22.0775   73.7729   33.3975 H   0  0  0  0  0  0  0  0  0  0  0  0
  -22.8836   74.5128   31.4267 H   0  0  0  0  0  0  0  0  0  0  0  0
  -21.4245   73.7281   30.7324 H   0  0  0  0  0  0  0  0  0  0  0  0
  -22.9971   72.8600   30.7324 H   0  0  0  0  0  0  0  0  0  0  0  0
  -18.8507   70.6774   32.0503 H   0  0  0  0  0  0  0  0  0  0  0  0
  -17.8707   71.0386   34.0463 H   0  0  0  0  0  0  0  0  0  0  0  0
  -19.3465   70.4653   34.9693 H   0  0  0  0  0  0  0  0  0  0  0  0
  -17.1974   68.7286   33.6905 H   0  0  0  0  0  0  0  0  0  0  0  0
  -18.9978   67.0537   35.1592 H   0  0  0  0  0  0  0  0  0  0  0  0
  -19.1390   68.5627   31.6003 H   0  0  0  0  0  0  0  0  0  0  0  0
  -22.0351   69.3089   32.1271 H   0  0  0  0  0  0  0  0  0  0  0  0
  -22.7458   67.5917   30.7334 H   0  0  0  0  0  0  0  0  0  0  0  0
  -22.3882   65.6908   32.3208 H   0  0  0  0  0  0  0  0  0  0  0  0
  -20.9513   66.0286   34.1968 H   0  0  0  0  0  0  0  0  0  0  0  0
  -20.1421   66.1548   30.3991 H   0  0  0  0  0  0  0  0  0  0  0  0
  -21.6010   66.1942   29.3518 H   0  0  0  0  0  0  0  0  0  0  0  0
  -20.4577   67.5797   29.3518 H   0  0  0  0  0  0  0  0  0  0  0  0
  -20.8038   70.8254   30.6121 H   0  0  0  0  0  0  0  0  0  0  0  0
  -20.4345   69.3862   29.5534 H   0  0  0  0  0  0  0  0  0  0  0  0
  -23.0053   69.0558   29.5236 H   0  0  0  0  0  0  0  0  0  0  0  0
  -23.0316   70.8072   30.0480 H   0  0  0  0  0  0  0  0  0  0  0  0
  -21.2438   70.4660   27.8069 H   0  0  0  0  0  0  0  0  0  0  0  0
  -23.8388   71.9958   28.1941 H   0  0  0  0  0  0  0  0  0  0  0  0
  -22.1457   72.6003   28.3705 H   0  0  0  0  0  0  0  0  0  0  0  0
  -23.7561   72.6509   26.0663 H   0  0  0  0  0  0  0  0  0  0  0  0
  -22.8405   71.2885   24.4237 H   0  0  0  0  0  0  0  0  0  0  0  0
  -21.4319   70.8313   25.4599 H   0  0  0  0  0  0  0  0  0  0  0  0
  -21.3848   73.5206   27.0127 H   0  0  0  0  0  0  0  0  0  0  0  0
  -18.0447   68.9286   36.6034 H   0  0  0  0  0  0  0  0  0  0  0  0
  -16.5919   68.1378   35.9029 H   0  0  0  0  0  0  0  0  0  0  0  0
  -16.7275   69.9290   35.9029 H   0  0  0  0  0  0  0  0  0  0  0  0
  1  2  1  0
  2  3  1  0
  3  4  1  0
  3  5  1  0
  5  6  2  0
  5  7  1  0
  7  8  1  0
  8  9  1  0
  9 10  1  0
 10 11  1  0
 11 12  2  0
 12 13  1  0
 13 14  1  0
 14 15  1  0
 15 16  1  0
 16 17  2  0
 15 18  1  0
 14 19  1  0
 19 20  1  0
 20 21  1  0
 21 22  1  0
 22 23  1  0
 23 24  1  0
 24 25  1  0
 25 26  2  0
 25 27  1  0
 23 28  1  0
 10 29  1  0
 13  8  1  0
 17 12  1  0
 27 21  1  0
  1 30  1  0
  1 31  1  0
  1 32  1  0
  2 33  1  0
  2 34  1  0
  3 35  1  1
  4 36  1  0
  4 37  1  0
  4 38  1  0
  8 39  1  6
  9 40  1  0
  9 41  1  0
 10 42  1  6
 11 43  1  0
 13 44  1  6
 14 45  1  1
 15 46  1  6
 16 47  1  0
 17 48  1  0
 18 49  1  0
 18 50  1  0
 18 51  1  0
 19 52  1  0
 19 53  1  0
 20 54  1  0
 20 55  1  0
 21 56  1  6
 22 57  1  0
 22 58  1  0
 23 59  1  6
 24 60  1  0
 24 61  1  0
 28 62  1  0
 29 63  1  0
 29 64  1  0
 29 65  1  0
M  END
