
     RDKit          3D

 54 57  0  0  0  0  0  0  0  0999 V2000
 -114.5040   69.0230   42.1790 C   0  0  0  0  0  0  0  0  0  0  0  0
 -113.6850   67.8570   42.7910 C   0  0  2  0  0  0  0  0  0  0  0  0
 -112.1790   68.1970   42.8060 C   0  0  0  0  0  0  0  0  0  0  0  0
 -111.5130   68.1880   41.4120 C   0  0  1  0  0  0  0  0  0  0  0  0
 -111.8340   66.9140   40.5680 C   0  0  1  0  0  0  0  0  0  0  0  0
 -113.3670   66.5780   40.5700 C   0  0  2  0  0  0  0  0  0  0  0  0
 -113.8520   66.5250   42.0270 C   0  0  2  0  0  0  0  0  0  0  0  0
 -115.2960   66.1290   42.3170 C   0  0  0  0  0  0  0  0  0  0  0  0
 -115.5430   66.6030   43.7660 C   0  0  0  0  0  0  0  0  0  0  0  0
 -114.3090   67.4470   44.1640 C   0  0  2  0  0  0  0  0  0  0  0  0
 -114.5420   68.6200   45.1300 C   0  0  0  0  0  0  0  0  0  0  0  0
 -113.9270   69.6850   44.9700 O   0  0  0  0  0  0  0  0  0  0  0  0
 -115.4940   68.4580   46.3050 C   0  0  0  0  0  0  0  0  0  0  0  0
 -114.9900   67.5360   47.2620 O   0  0  0  0  0  0  0  0  0  0  0  0
 -113.4170   66.5570   44.8630 O   0  0  0  0  0  0  0  0  0  0  0  0
 -113.6430   65.2360   39.8650 C   0  0  0  0  0  0  0  0  0  0  0  0
 -113.0380   65.1720   38.4680 C   0  0  0  0  0  0  0  0  0  0  0  0
 -111.5660   65.4920   38.5230 C   0  0  0  0  0  0  0  0  0  0  0  0
 -110.6580   64.5930   38.1040 C   0  0  0  0  0  0  0  0  0  0  0  0
 -109.2070   64.8500   38.1980 C   0  0  0  0  0  0  0  0  0  0  0  0
 -108.3880   64.0280   37.8040 O   0  0  0  0  0  0  0  0  0  0  0  0
 -108.7840   66.1310   38.7920 C   0  0  0  0  0  0  0  0  0  0  0  0
 -109.6880   67.0290   39.2080 C   0  0  0  0  0  0  0  0  0  0  0  0
 -111.2000   66.8570   39.1250 C   0  0  2  0  0  0  0  0  0  0  0  0
 -111.7060   67.9530   38.1620 C   0  0  0  0  0  0  0  0  0  0  0  0
 -111.8100   69.4040   40.7410 O   0  0  0  0  0  0  0  0  0  0  0  0
 -114.9329   69.6336   42.9872 H   0  0  0  0  0  0  0  0  0  0  0  0
 -113.8451   69.6475   41.5578 H   0  0  0  0  0  0  0  0  0  0  0  0
 -115.3150   68.6150   41.5578 H   0  0  0  0  0  0  0  0  0  0  0  0
 -112.0563   69.2002   43.2403 H   0  0  0  0  0  0  0  0  0  0  0  0
 -111.6841   67.4126   43.3974 H   0  0  0  0  0  0  0  0  0  0  0  0
 -110.4239   68.1286   41.5545 H   0  0  0  0  0  0  0  0  0  0  0  0
 -111.3077   66.1078   41.0999 H   0  0  0  0  0  0  0  0  0  0  0  0
 -113.9111   67.3583   40.0176 H   0  0  0  0  0  0  0  0  0  0  0  0
 -113.1872   65.7151   42.3619 H   0  0  0  0  0  0  0  0  0  0  0  0
 -115.9842   66.6310   41.6210 H   0  0  0  0  0  0  0  0  0  0  0  0
 -115.4662   65.0491   42.1952 H   0  0  0  0  0  0  0  0  0  0  0  0
 -116.4553   67.2155   43.8159 H   0  0  0  0  0  0  0  0  0  0  0  0
 -115.6804   65.7504   44.4473 H   0  0  0  0  0  0  0  0  0  0  0  0
 -115.6329   69.4357   46.7896 H   0  0  0  0  0  0  0  0  0  0  0  0
 -116.4499   68.0702   45.9231 H   0  0  0  0  0  0  0  0  0  0  0  0
 -115.1744   67.8734   48.1743 H   0  0  0  0  0  0  0  0  0  0  0  0
 -113.5332   66.6730   45.8393 H   0  0  0  0  0  0  0  0  0  0  0  0
 -113.2146   64.4247   40.4718 H   0  0  0  0  0  0  0  0  0  0  0  0
 -114.7332   65.1328   39.7607 H   0  0  0  0  0  0  0  0  0  0  0  0
 -113.1748   64.1602   38.0588 H   0  0  0  0  0  0  0  0  0  0  0  0
 -113.5416   65.9086   37.8247 H   0  0  0  0  0  0  0  0  0  0  0  0
 -111.0058   63.6397   37.6794 H   0  0  0  0  0  0  0  0  0  0  0  0
 -107.7116   66.3531   38.8953 H   0  0  0  0  0  0  0  0  0  0  0  0
 -109.3082   67.9647   39.6441 H   0  0  0  0  0  0  0  0  0  0  0  0
 -112.0972   68.8004   38.7441 H   0  0  0  0  0  0  0  0  0  0  0  0
 -110.8752   68.2961   37.5280 H   0  0  0  0  0  0  0  0  0  0  0  0
 -112.5060   67.5432   37.5280 H   0  0  0  0  0  0  0  0  0  0  0  0
 -111.9836   70.1149   41.4077 H   0  0  0  0  0  0  0  0  0  0  0  0
  2  1  1  6
  2  3  1  0
  3  4  1  0
  4  5  1  0
  5  6  1  0
  6  7  1  0
  7  8  1  0
  8  9  1  0
  9 10  1  0
 10 11  1  0
 11 12  2  0
 11 13  1  0
 13 14  1  0
 10 15  1  1
  6 16  1  0
 16 17  1  0
 17 18  1  0
 18 19  2  0
 19 20  1  0
 20 21  2  0
 20 22  1  0
 22 23  2  0
 23 24  1  0
 24 25  1  6
  4 26  1  0
  7  2  1  0
 10  2  1  0
 24  5  1  0
 24 18  1  0
  1 27  1  0
  1 28  1  0
  1 29  1  0
  3 30  1  0
  3 31  1  0
  4 32  1  1
  5 33  1  1
  6 34  1  6
  7 35  1  1
  8 36  1  0
  8 37  1  0
  9 38  1  0
  9 39  1  0
 13 40  1  0
 13 41  1  0
 14 42  1  0
 15 43  1  0
 16 44  1  0
 16 45  1  0
 17 46  1  0
 17 47  1  0
 19 48  1  0
 22 49  1  0
 23 50  1  0
 25 51  1  0
 25 52  1  0
 25 53  1  0
 26 54  1  0
M  END
