
     RDKit          3D

 82 84  0  0  0  0  0  0  0  0999 V2000
  -17.1840   69.2800   36.7460 C   0  0  0  0  0  0  0  0  0  0  0  0
  -17.9660   68.9300   35.5030 C   0  0  0  0  0  0  0  0  0  0  0  0
  -17.5110   69.5680   34.1970 C   0  0  2  0  0  0  0  0  0  0  0  0
  -18.7640   70.0550   34.8540 C   0  0  1  0  0  0  0  0  0  0  0  0
  -19.9030   69.8740   33.8720 C   0  0  2  0  0  0  0  0  0  0  0  0
  -19.3180   69.0760   32.7890 N   0  0  0  0  0  0  0  0  0  0  0  0
  -17.8640   69.0600   32.8320 C   0  0  0  0  0  0  0  0  0  0  0  0
  -19.9770   68.5180   31.7170 C   0  0  0  0  0  0  0  0  0  0  0  0
  -19.3500   68.0340   30.7660 O   0  0  0  0  0  0  0  0  0  0  0  0
  -21.5300   68.5000   31.6990 C   0  0  2  0  0  0  0  0  0  0  0  0
  -22.1550   67.3130   32.4980 C   0  0  0  0  0  0  0  0  0  0  0  0
  -21.0990   66.4310   33.1920 C   0  0  0  0  0  0  0  0  0  0  0  0
  -23.1310   67.8330   33.5680 C   0  0  0  0  0  0  0  0  0  0  0  0
  -22.9580   66.4210   31.5230 C   0  0  0  0  0  0  0  0  0  0  0  0
  -21.8980   68.4440   30.2810 N   0  0  0  0  0  0  0  0  0  0  0  0
  -22.5910   69.4710   29.6930 C   0  0  0  0  0  0  0  0  0  0  0  0
  -23.1120   70.3860   30.3150 O   0  0  0  0  0  0  0  0  0  0  0  0
  -22.6310   69.3100   28.3330 N   0  0  0  0  0  0  0  0  0  0  0  0
  -23.2930   70.2400   27.4070 C   0  0  0  0  0  0  0  0  0  0  0  0
  -24.5600   70.8350   28.0430 C   0  0  0  0  0  0  0  0  0  0  0  0
  -22.3160   71.3940   27.1180 C   0  0  0  0  0  0  0  0  0  0  0  0
  -23.6400   69.5480   26.0790 C   0  0  0  0  0  0  0  0  0  0  0  0
  -20.3530   71.2620   33.3410 C   0  0  0  0  0  0  0  0  0  0  0  0
  -19.6120   72.0320   32.7360 O   0  0  0  0  0  0  0  0  0  0  0  0
  -21.6510   71.5890   33.6760 N   0  0  0  0  0  0  0  0  0  0  0  0
  -22.2240   72.8920   33.2900 C   0  0  0  0  0  0  0  0  0  0  0  0
  -22.6590   72.7970   31.8230 C   0  0  0  0  0  0  0  0  0  0  0  0
  -22.4150   74.0200   30.9450 C   0  0  0  0  0  0  0  0  0  0  0  0
  -23.0410   75.4040   31.2620 C   0  0  0  0  0  0  0  0  0  0  0  0
  -23.0160   75.6790   29.7420 C   0  0  0  0  0  0  0  0  0  0  0  0
  -23.0330   74.1490   29.5290 C   0  0  0  0  0  0  0  0  0  0  0  0
  -23.4010   73.0880   34.2360 C   0  0  0  0  0  0  0  0  0  0  0  0
  -24.5110   73.4930   33.8850 O   0  0  0  0  0  0  0  0  0  0  0  0
  -23.1900   72.6900   35.7010 C   0  0  0  0  0  0  0  0  0  0  0  0
  -23.2260   71.5320   36.0760 O   0  0  0  0  0  0  0  0  0  0  0  0
  -22.9270   73.7430   36.5360 N   0  0  0  0  0  0  0  0  0  0  0  0
  -18.5060   67.5250   35.5240 C   0  0  0  0  0  0  0  0  0  0  0  0
  -17.7735   69.0162   37.6365 H   0  0  0  0  0  0  0  0  0  0  0  0
  -16.2375   68.7196   36.7536 H   0  0  0  0  0  0  0  0  0  0  0  0
  -16.9713   70.3592   36.7536 H   0  0  0  0  0  0  0  0  0  0  0  0
  -16.4977   69.8874   33.9120 H   0  0  0  0  0  0  0  0  0  0  0  0
  -19.2148   70.9307   35.3438 H   0  0  0  0  0  0  0  0  0  0  0  0
  -20.7868   69.3921   34.3154 H   0  0  0  0  0  0  0  0  0  0  0  0
  -17.4842   68.0375   32.6898 H   0  0  0  0  0  0  0  0  0  0  0  0
  -17.4202   69.6744   32.0348 H   0  0  0  0  0  0  0  0  0  0  0  0
  -21.9260   69.3938   32.2033 H   0  0  0  0  0  0  0  0  0  0  0  0
  -21.2062   66.5205   34.2831 H   0  0  0  0  0  0  0  0  0  0  0  0
  -21.2442   65.3821   32.8941 H   0  0  0  0  0  0  0  0  0  0  0  0
  -20.0927   66.7608   32.8941 H   0  0  0  0  0  0  0  0  0  0  0  0
  -22.7271   67.6178   34.5683 H   0  0  0  0  0  0  0  0  0  0  0  0
  -23.2595   68.9191   33.4503 H   0  0  0  0  0  0  0  0  0  0  0  0
  -24.1041   67.3338   33.4503 H   0  0  0  0  0  0  0  0  0  0  0  0
  -23.5859   65.7235   32.0968 H   0  0  0  0  0  0  0  0  0  0  0  0
  -23.5972   67.0534   30.8893 H   0  0  0  0  0  0  0  0  0  0  0  0
  -22.2621   65.8516   30.8893 H   0  0  0  0  0  0  0  0  0  0  0  0
  -21.6326   67.6226   29.7191 H   0  0  0  0  0  0  0  0  0  0  0  0
  -22.1664   68.4824   27.9329 H   0  0  0  0  0  0  0  0  0  0  0  0
  -24.4738   70.7945   29.1389 H   0  0  0  0  0  0  0  0  0  0  0  0
  -24.6745   71.8810   27.7226 H   0  0  0  0  0  0  0  0  0  0  0  0
  -25.4381   70.2551   27.7226 H   0  0  0  0  0  0  0  0  0  0  0  0
  -21.9575   71.8175   28.0678 H   0  0  0  0  0  0  0  0  0  0  0  0
  -21.4607   71.0142   26.5398 H   0  0  0  0  0  0  0  0  0  0  0  0
  -22.8317   72.1749   26.5398 H   0  0  0  0  0  0  0  0  0  0  0  0
  -24.1244   68.5820   26.2845 H   0  0  0  0  0  0  0  0  0  0  0  0
  -24.3248   70.1860   25.5011 H   0  0  0  0  0  0  0  0  0  0  0  0
  -22.7191   69.3808   25.5011 H   0  0  0  0  0  0  0  0  0  0  0  0
  -22.2263   70.9154   34.2016 H   0  0  0  0  0  0  0  0  0  0  0  0
  -21.5292   73.7413   33.3669 H   0  0  0  0  0  0  0  0  0  0  0  0
  -22.1189   71.9519   31.3714 H   0  0  0  0  0  0  0  0  0  0  0  0
  -23.7528   72.6852   31.8574 H   0  0  0  0  0  0  0  0  0  0  0  0
  -21.3424   73.8268   31.0937 H   0  0  0  0  0  0  0  0  0  0  0  0
  -24.0468   75.3631   31.7055 H   0  0  0  0  0  0  0  0  0  0  0  0
  -22.5851   76.0961   31.9853 H   0  0  0  0  0  0  0  0  0  0  0  0
  -23.9020   76.2050   29.3570 H   0  0  0  0  0  0  0  0  0  0  0  0
  -22.2462   76.3171   29.2835 H   0  0  0  0  0  0  0  0  0  0  0  0
  -24.0364   73.7106   29.4236 H   0  0  0  0  0  0  0  0  0  0  0  0
  -22.5698   73.6801   28.6483 H   0  0  0  0  0  0  0  0  0  0  0  0
  -22.7704   73.5771   37.5404 H   0  0  0  0  0  0  0  0  0  0  0  0
  -22.8858   74.7009   36.1596 H   0  0  0  0  0  0  0  0  0  0  0  0
  -18.6323   67.1963   36.5661 H   0  0  0  0  0  0  0  0  0  0  0  0
  -19.4785   67.4982   35.0106 H   0  0  0  0  0  0  0  0  0  0  0  0
  -17.8018   66.8538   35.0106 H   0  0  0  0  0  0  0  0  0  0  0  0
  1  2  1  0
  2  3  1  0
  3  4  1  0
  4  5  1  0
  5  6  1  0
  6  7  1  0
  6  8  1  0
  8  9  2  0
  8 10  1  0
 10 11  1  0
 11 12  1  0
 11 13  1  0
 11 14  1  0
 10 15  1  0
 15 16  1  0
 16 17  2  0
 16 18  1  0
 18 19  1  0
 19 20  1  0
 19 21  1  0
 19 22  1  0
  5 23  1  0
 23 24  2  0
 23 25  1  0
 25 26  1  0
 26 27  1  0
 27 28  1  0
 28 29  1  0
 29 30  1  0
 30 31  1  0
 26 32  1  0
 32 33  2  0
 32 34  1  0
 34 35  2  0
 34 36  1  0
  2 37  1  0
  4  2  1  0
  7  3  1  0
 31 28  1  0
  1 38  1  0
  1 39  1  0
  1 40  1  0
  3 41  1  1
  4 42  1  1
  5 43  1  1
  7 44  1  0
  7 45  1  0
 10 46  1  1
 12 47  1  0
 12 48  1  0
 12 49  1  0
 13 50  1  0
 13 51  1  0
 13 52  1  0
 14 53  1  0
 14 54  1  0
 14 55  1  0
 15 56  1  0
 18 57  1  0
 20 58  1  0
 20 59  1  0
 20 60  1  0
 21 61  1  0
 21 62  1  0
 21 63  1  0
 22 64  1  0
 22 65  1  0
 22 66  1  0
 25 67  1  0
 26 68  1  0
 27 69  1  0
 27 70  1  0
 28 71  1  0
 29 72  1  0
 29 73  1  0
 30 74  1  0
 30 75  1  0
 31 76  1  0
 31 77  1  0
 36 78  1  0
 36 79  1  0
 37 80  1  0
 37 81  1  0
 37 82  1  0
M  END
