
     RDKit          3D

 41 43  0  0  0  0  0  0  0  0999 V2000
  -22.8490   73.3930   26.3790 C   0  0  0  0  0  0  0  0  0  0  0  0
  -23.2990   72.2590   27.1090 O   0  0  0  0  0  0  0  0  0  0  0  0
  -22.5110   71.8040   28.1330 C   0  0  0  0  0  0  0  0  0  0  0  0
  -21.8560   70.5750   27.9450 C   0  0  0  0  0  0  0  0  0  0  0  0
  -20.9840   70.1220   28.9450 C   0  0  0  0  0  0  0  0  0  0  0  0
  -20.7730   70.8080   30.1000 N   0  0  0  0  0  0  0  0  0  0  0  0
  -21.4450   71.9620   30.2670 C   0  0  0  0  0  0  0  0  0  0  0  0
  -22.3100   72.4960   29.3270 C   0  0  0  0  0  0  0  0  0  0  0  0
  -20.2110   68.8370   28.7850 C   0  0  0  0  0  0  0  0  0  0  0  0
  -20.9520   67.4610   29.7150 S   0  0  0  0  0  0  0  0  0  0  0  0
  -22.4010   67.7550   29.9920 O   0  0  0  0  0  0  0  0  0  0  0  0
  -20.1090   67.7940   31.2710 C   0  0  0  0  0  0  0  0  0  0  0  0
  -20.4520   67.3090   32.4430 N   0  0  0  0  0  0  0  0  0  0  0  0
  -19.5350   67.8280   33.3240 C   0  0  0  0  0  0  0  0  0  0  0  0
  -18.6160   68.6390   32.6690 C   0  0  0  0  0  0  0  0  0  0  0  0
  -19.0090   68.6020   31.3580 N   0  0  0  0  0  0  0  0  0  0  0  0
  -17.5700   69.2920   33.3250 C   0  0  0  0  0  0  0  0  0  0  0  0
  -17.4570   69.0970   34.7110 C   0  0  0  0  0  0  0  0  0  0  0  0
  -18.3810   68.2980   35.3940 C   0  0  0  0  0  0  0  0  0  0  0  0
  -19.4240   67.6540   34.7100 C   0  0  0  0  0  0  0  0  0  0  0  0
  -16.4090   69.7670   35.2830 O   0  0  0  0  0  0  0  0  0  0  0  0
  -16.6220   71.1360   35.5820 C   0  0  0  0  0  0  0  0  0  0  0  0
  -17.9550   71.3810   35.6270 F   0  0  0  0  0  0  0  0  0  0  0  0
  -16.1310   71.8580   34.5430 F   0  0  0  0  0  0  0  0  0  0  0  0
  -21.9490   69.8130   26.8090 O   0  0  0  0  0  0  0  0  0  0  0  0
  -21.1410   70.2690   25.7250 C   0  0  0  0  0  0  0  0  0  0  0  0
  -22.5365   74.1804   27.0807 H   0  0  0  0  0  0  0  0  0  0  0  0
  -21.9963   73.1067   25.7458 H   0  0  0  0  0  0  0  0  0  0  0  0
  -23.6660   73.7693   25.7458 H   0  0  0  0  0  0  0  0  0  0  0  0
  -21.2982   72.5142   31.2069 H   0  0  0  0  0  0  0  0  0  0  0  0
  -22.8284   73.4472   29.5182 H   0  0  0  0  0  0  0  0  0  0  0  0
  -20.1870   68.5698   27.7182 H   0  0  0  0  0  0  0  0  0  0  0  0
  -19.1987   69.0032   29.1821 H   0  0  0  0  0  0  0  0  0  0  0  0
  -18.5562   69.0955   30.5755 H   0  0  0  0  0  0  0  0  0  0  0  0
  -16.8632   69.9332   32.7779 H   0  0  0  0  0  0  0  0  0  0  0  0
  -18.2886   68.1728   36.4829 H   0  0  0  0  0  0  0  0  0  0  0  0
  -20.1427   67.0229   35.2533 H   0  0  0  0  0  0  0  0  0  0  0  0
  -16.1443   71.3929   36.5390 H   0  0  0  0  0  0  0  0  0  0  0  0
  -20.2472   70.7734   26.1208 H   0  0  0  0  0  0  0  0  0  0  0  0
  -20.8350   69.4104   25.1093 H   0  0  0  0  0  0  0  0  0  0  0  0
  -21.7179   70.9747   25.1093 H   0  0  0  0  0  0  0  0  0  0  0  0
  1  2  1  0
  2  3  1  0
  3  4  2  0
  4  5  1  0
  5  6  2  0
  6  7  1  0
  7  8  2  0
  5  9  1  0
  9 10  1  0
 10 11  2  0
 10 12  1  0
 12 13  2  0
 13 14  1  0
 14 15  2  0
 15 16  1  0
 15 17  1  0
 17 18  2  0
 18 19  1  0
 19 20  2  0
 18 21  1  0
 21 22  1  0
 22 23  1  0
 22 24  1  0
  4 25  1  0
 25 26  1  0
  8  3  1  0
 16 12  1  0
 20 14  1  0
  1 27  1  0
  1 28  1  0
  1 29  1  0
  7 30  1  0
  8 31  1  0
  9 32  1  0
  9 33  1  0
 16 34  1  0
 17 35  1  0
 19 36  1  0
 20 37  1  0
 22 38  1  0
 26 39  1  0
 26 40  1  0
 26 41  1  0
M  END
