
     RDKit          3D

 45 48  0  0  0  0  0  0  0  0999 V2000
   -5.3350   67.7170   22.9660 C   0  0  0  0  0  0  0  0  0  0  0  0
   -4.7950   69.1170   23.2710 C   0  0  0  0  0  0  0  0  0  0  0  0
   -5.6720   69.8470   24.3080 C   0  0  0  0  0  0  0  0  0  0  0  0
   -5.8550   69.0090   25.5860 C   0  0  0  0  0  0  0  0  0  0  0  0
   -6.3820   67.6080   25.2710 C   0  0  0  0  0  0  0  0  0  0  0  0
   -5.4880   66.8840   24.2500 C   0  0  0  0  0  0  0  0  0  0  0  0
   -5.9930   65.4810   23.9560 C   0  0  0  0  0  0  0  0  0  0  0  0
   -6.7070   64.7380   24.9090 C   0  0  0  0  0  0  0  0  0  0  0  0
   -7.1590   63.4480   24.6140 C   0  0  0  0  0  0  0  0  0  0  0  0
   -6.9020   62.8920   23.3640 C   0  0  0  0  0  0  0  0  0  0  0  0
   -6.1960   63.6150   22.4060 C   0  0  0  0  0  0  0  0  0  0  0  0
   -5.7430   64.9030   22.7010 C   0  0  0  0  0  0  0  0  0  0  0  0
   -7.4600   61.3060   23.0020 Cl  0  0  0  0  0  0  0  0  0  0  0  0
   -5.1980   71.2660   24.6060 C   0  0  0  0  0  0  0  0  0  0  0  0
   -4.1920   71.5930   25.4460 C   0  0  0  0  0  0  0  0  0  0  0  0
   -3.8000   72.9920   25.7350 C   0  0  0  0  0  0  0  0  0  0  0  0
   -2.6830   73.2860   26.5360 C   0  0  0  0  0  0  0  0  0  0  0  0
   -2.3290   74.6080   26.8320 C   0  0  0  0  0  0  0  0  0  0  0  0
   -3.0910   75.6620   26.3380 C   0  0  0  0  0  0  0  0  0  0  0  0
   -4.2030   75.3940   25.5450 C   0  0  0  0  0  0  0  0  0  0  0  0
   -4.5440   74.0680   25.2460 C   0  0  0  0  0  0  0  0  0  0  0  0
   -5.7130   73.7960   24.4030 C   0  0  0  0  0  0  0  0  0  0  0  0
   -6.5080   74.6770   24.1050 O   0  0  0  0  0  0  0  0  0  0  0  0
   -5.9050   72.3800   23.8980 C   0  0  0  0  0  0  0  0  0  0  0  0
   -6.6200   72.1840   22.9240 O   0  0  0  0  0  0  0  0  0  0  0  0
   -3.4230   70.6630   26.1170 O   0  0  0  0  0  0  0  0  0  0  0  0
   -6.3175   67.8101   22.4803 H   0  0  0  0  0  0  0  0  0  0  0  0
   -4.6201   67.2061   22.3043 H   0  0  0  0  0  0  0  0  0  0  0  0
   -3.7727   69.0274   23.6671 H   0  0  0  0  0  0  0  0  0  0  0  0
   -4.8039   69.7011   22.3389 H   0  0  0  0  0  0  0  0  0  0  0  0
   -6.6643   69.9614   23.8473 H   0  0  0  0  0  0  0  0  0  0  0  0
   -4.8844   68.9189   26.0956 H   0  0  0  0  0  0  0  0  0  0  0  0
   -6.5904   69.5166   26.2275 H   0  0  0  0  0  0  0  0  0  0  0  0
   -6.4112   67.0201   26.2003 H   0  0  0  0  0  0  0  0  0  0  0  0
   -7.3882   67.7078   24.8380 H   0  0  0  0  0  0  0  0  0  0  0  0
   -4.4890   66.7746   24.6972 H   0  0  0  0  0  0  0  0  0  0  0  0
   -6.9130   65.1746   25.8974 H   0  0  0  0  0  0  0  0  0  0  0  0
   -7.7167   62.8736   25.3684 H   0  0  0  0  0  0  0  0  0  0  0  0
   -5.9954   63.1728   21.4190 H   0  0  0  0  0  0  0  0  0  0  0  0
   -5.1845   65.4705   21.9421 H   0  0  0  0  0  0  0  0  0  0  0  0
   -2.0754   72.4618   26.9380 H   0  0  0  0  0  0  0  0  0  0  0  0
   -1.4469   74.8136   27.4562 H   0  0  0  0  0  0  0  0  0  0  0  0
   -2.8163   76.7010   26.5727 H   0  0  0  0  0  0  0  0  0  0  0  0
   -4.8131   76.2215   25.1537 H   0  0  0  0  0  0  0  0  0  0  0  0
   -2.6981   70.9631   26.7207 H   0  0  0  0  0  0  0  0  0  0  0  0
  1  2  1  0
  2  3  1  0
  3  4  1  0
  4  5  1  0
  5  6  1  0
  6  7  1  0
  7  8  2  0
  8  9  1  0
  9 10  2  0
 10 11  1  0
 11 12  2  0
 10 13  1  0
  3 14  1  0
 14 15  2  0
 15 16  1  0
 16 17  2  0
 17 18  1  0
 18 19  2  0
 19 20  1  0
 20 21  2  0
 21 22  1  0
 22 23  2  0
 22 24  1  0
 24 25  2  0
 15 26  1  0
  6  1  1  0
 12  7  1  0
 24 14  1  0
 21 16  1  0
  1 27  1  0
  1 28  1  0
  2 29  1  0
  2 30  1  0
  3 31  1  0
  4 32  1  0
  4 33  1  0
  5 34  1  0
  5 35  1  0
  6 36  1  0
  8 37  1  0
  9 38  1  0
 11 39  1  0
 12 40  1  0
 17 41  1  0
 18 42  1  0
 19 43  1  0
 20 44  1  0
 26 45  1  0
M  END
