
     RDKit          3D

 39 42  0  0  0  0  0  0  0  0999 V2000
   -6.9790   76.2000   19.7390 C   0  0  0  0  0  0  0  0  0  0  0  0
   -5.5400   75.8790   20.0160 C   0  0  0  0  0  0  0  0  0  0  0  0
   -6.1260   75.5920   18.6630 C   0  0  0  0  0  0  0  0  0  0  0  0
   -5.7390   76.3730   17.4960 N   0  0  0  0  0  0  0  0  0  0  0  0
   -6.3250   76.0960   16.2470 C   0  0  0  0  0  0  0  0  0  0  0  0
   -6.2230   74.8200   15.6680 C   0  0  0  0  0  0  0  0  0  0  0  0
   -6.8300   74.6490   14.4380 C   0  0  0  0  0  0  0  0  0  0  0  0
   -7.5160   75.5630   13.7380 N   0  0  0  0  0  0  0  0  0  0  0  0
   -7.5430   76.7510   14.3620 C   0  0  0  0  0  0  0  0  0  0  0  0
   -7.0100   77.0490   15.5570 N   0  0  0  0  0  0  0  0  0  0  0  0
   -8.2350   77.7660   13.7300 N   0  0  0  0  0  0  0  0  0  0  0  0
   -6.5810   73.3450   14.1000 N   0  0  0  0  0  0  0  0  0  0  0  0
   -5.8730   72.7830   15.1310 C   0  0  0  0  0  0  0  0  0  0  0  0
   -5.6360   73.6460   16.0960 N   0  0  0  0  0  0  0  0  0  0  0  0
   -7.0420   72.6960   12.8860 C   0  0  2  0  0  0  0  0  0  0  0  0
   -8.4320   72.0610   13.0530 C   0  0  0  0  0  0  0  0  0  0  0  0
   -8.4110   70.7740   12.2080 C   0  0  1  0  0  0  0  0  0  0  0  0
   -6.9450   70.4830   12.0890 C   0  0  0  0  0  0  0  0  0  0  0  0
   -6.1990   71.5320   12.4520 C   0  0  0  0  0  0  0  0  0  0  0  0
   -9.2130   69.6360   12.8410 C   0  0  0  0  0  0  0  0  0  0  0  0
   -8.3470   68.5910   13.2690 O   0  0  0  0  0  0  0  0  0  0  0  0
   -7.7756   75.6058   20.2107 H   0  0  0  0  0  0  0  0  0  0  0  0
   -7.6038   77.1017   19.8192 H   0  0  0  0  0  0  0  0  0  0  0  0
   -4.8088   76.6917   20.1374 H   0  0  0  0  0  0  0  0  0  0  0  0
   -5.0075   75.2864   20.7744 H   0  0  0  0  0  0  0  0  0  0  0  0
   -6.1950   74.7014   18.0211 H   0  0  0  0  0  0  0  0  0  0  0  0
   -5.0399   77.1242   17.5845 H   0  0  0  0  0  0  0  0  0  0  0  0
   -8.2893   78.6992   14.1625 H   0  0  0  0  0  0  0  0  0  0  0  0
   -8.6966   77.5895   12.8263 H   0  0  0  0  0  0  0  0  0  0  0  0
   -5.5420   71.7341   15.1494 H   0  0  0  0  0  0  0  0  0  0  0  0
   -7.0141   73.5196   12.1574 H   0  0  0  0  0  0  0  0  0  0  0  0
   -8.6191   71.8218   14.1103 H   0  0  0  0  0  0  0  0  0  0  0  0
   -9.2304   72.7446   12.7287 H   0  0  0  0  0  0  0  0  0  0  0  0
   -8.8986   70.8875   11.2285 H   0  0  0  0  0  0  0  0  0  0  0  0
   -6.5329   69.5229   11.7448 H   0  0  0  0  0  0  0  0  0  0  0  0
   -5.0992   71.5409   12.4346 H   0  0  0  0  0  0  0  0  0  0  0  0
   -9.7680   70.0235   13.7080 H   0  0  0  0  0  0  0  0  0  0  0  0
   -9.9106   69.2340   12.0915 H   0  0  0  0  0  0  0  0  0  0  0  0
   -8.3253   68.5648   14.2584 H   0  0  0  0  0  0  0  0  0  0  0  0
  1  2  1  0
  2  3  1  0
  3  4  1  0
  4  5  1  0
  5  6  2  0
  6  7  1  0
  7  8  2  0
  8  9  1  0
  9 10  2  0
  9 11  1  0
  7 12  1  0
 12 13  1  0
 13 14  2  0
 12 15  1  0
 15 16  1  0
 16 17  1  0
 17 18  1  0
 18 19  2  0
 17 20  1  0
 20 21  1  0
  3  1  1  0
 10  5  1  0
 14  6  1  0
 19 15  1  0
  1 22  1  0
  1 23  1  0
  2 24  1  0
  2 25  1  0
  3 26  1  0
  4 27  1  0
 11 28  1  0
 11 29  1  0
 13 30  1  0
 15 31  1  6
 16 32  1  0
 16 33  1  0
 17 34  1  6
 18 35  1  0
 19 36  1  0
 20 37  1  0
 20 38  1  0
 21 39  1  0
M  END
