
     RDKit          3D

 55 57  0  0  0  0  0  0  0  0999 V2000
  -23.1660   76.2040   30.5400 C   0  0  0  0  0  0  0  0  0  0  0  0
  -23.6360   74.8600   30.8780 N   0  0  0  0  0  0  0  0  0  0  0  0
  -24.4940   74.2210   29.8560 C   0  0  0  0  0  0  0  0  0  0  0  0
  -23.7010   73.5360   28.7620 C   0  0  0  0  0  0  0  0  0  0  0  0
  -23.3510   74.2060   27.6050 C   0  0  0  0  0  0  0  0  0  0  0  0
  -22.6530   73.6250   26.5990 N   0  0  0  0  0  0  0  0  0  0  0  0
  -22.2980   72.3430   26.7380 C   0  0  0  0  0  0  0  0  0  0  0  0
  -22.6460   71.6570   27.9070 C   0  0  0  0  0  0  0  0  0  0  0  0
  -23.3580   72.2350   28.9250 N   0  0  0  0  0  0  0  0  0  0  0  0
  -22.2120   70.3340   27.9240 C   0  0  0  0  0  0  0  0  0  0  0  0
  -21.5250   69.7550   26.9280 N   0  0  0  0  0  0  0  0  0  0  0  0
  -21.2760   70.5100   25.8630 C   0  0  0  0  0  0  0  0  0  0  0  0
  -21.6240   71.7840   25.7380 N   0  0  0  0  0  0  0  0  0  0  0  0
  -20.5710   69.9360   24.8280 N   0  0  0  0  0  0  0  0  0  0  0  0
  -22.4130   69.5300   29.0590 N   0  0  0  0  0  0  0  0  0  0  0  0
  -22.8150   74.0240   31.6380 C   0  0  0  0  0  0  0  0  0  0  0  0
  -23.3000   73.2280   32.6870 C   0  0  0  0  0  0  0  0  0  0  0  0
  -22.4530   72.4010   33.4420 C   0  0  0  0  0  0  0  0  0  0  0  0
  -21.0900   72.3370   33.1460 C   0  0  0  0  0  0  0  0  0  0  0  0
  -20.5860   73.1180   32.1060 C   0  0  0  0  0  0  0  0  0  0  0  0
  -21.4410   73.9400   31.3610 C   0  0  0  0  0  0  0  0  0  0  0  0
  -20.1420   71.4830   33.9130 C   0  0  0  0  0  0  0  0  0  0  0  0
  -20.3470   71.2390   35.0970 O   0  0  0  0  0  0  0  0  0  0  0  0
  -19.0390   71.0170   33.2360 N   0  0  0  0  0  0  0  0  0  0  0  0
  -18.0190   70.1910   33.8920 C   0  0  1  0  0  0  0  0  0  0  0  0
  -17.5630   69.0690   32.9530 C   0  0  0  0  0  0  0  0  0  0  0  0
  -18.5930   67.9510   32.7650 C   0  0  0  0  0  0  0  0  0  0  0  0
  -19.4080   68.0140   31.5000 C   0  0  0  0  0  0  0  0  0  0  0  0
  -19.8480   69.0320   30.9900 O   0  0  0  0  0  0  0  0  0  0  0  0
  -19.5630   66.8300   30.8840 O   0  0  0  0  0  0  0  0  0  0  0  0
  -16.8850   71.1360   34.2800 C   0  0  0  0  0  0  0  0  0  0  0  0
  -16.3490   71.2030   35.3770 O   0  0  0  0  0  0  0  0  0  0  0  0
  -16.4810   71.9250   33.2680 O   0  0  0  0  0  0  0  0  0  0  0  0
  -22.9692   76.7669   31.4644 H   0  0  0  0  0  0  0  0  0  0  0  0
  -22.2400   76.1312   29.9508 H   0  0  0  0  0  0  0  0  0  0  0  0
  -23.9356   76.7242   29.9508 H   0  0  0  0  0  0  0  0  0  0  0  0
  -25.1292   73.4713   30.3505 H   0  0  0  0  0  0  0  0  0  0  0  0
  -25.0895   75.0156   29.3826 H   0  0  0  0  0  0  0  0  0  0  0  0
  -23.6525   75.2582   27.4957 H   0  0  0  0  0  0  0  0  0  0  0  0
  -20.3564   70.4858   23.9838 H   0  0  0  0  0  0  0  0  0  0  0  0
  -20.2585   68.9571   24.8983 H   0  0  0  0  0  0  0  0  0  0  0  0
  -22.0883   68.5525   29.0618 H   0  0  0  0  0  0  0  0  0  0  0  0
  -22.8850   69.9182   29.8881 H   0  0  0  0  0  0  0  0  0  0  0  0
  -24.3738   73.2526   32.9244 H   0  0  0  0  0  0  0  0  0  0  0  0
  -22.8640   71.8024   34.2683 H   0  0  0  0  0  0  0  0  0  0  0  0
  -19.5121   73.0882   31.8698 H   0  0  0  0  0  0  0  0  0  0  0  0
  -21.0245   74.5364   30.5359 H   0  0  0  0  0  0  0  0  0  0  0  0
  -18.9259   71.2547   32.2402 H   0  0  0  0  0  0  0  0  0  0  0  0
  -18.4046   69.6886   34.7914 H   0  0  0  0  0  0  0  0  0  0  0  0
  -17.3480   69.5093   31.9682 H   0  0  0  0  0  0  0  0  0  0  0  0
  -16.6777   68.6089   33.4163 H   0  0  0  0  0  0  0  0  0  0  0  0
  -18.0545   66.9919   32.7717 H   0  0  0  0  0  0  0  0  0  0  0  0
  -19.3124   68.0671   33.5890 H   0  0  0  0  0  0  0  0  0  0  0  0
  -20.0844   66.7734   30.0443 H   0  0  0  0  0  0  0  0  0  0  0  0
  -15.7497   72.5769   33.4102 H   0  0  0  0  0  0  0  0  0  0  0  0
  1  2  1  0
  2  3  1  0
  3  4  1  0
  4  5  2  0
  5  6  1  0
  6  7  2  0
  7  8  1  0
  8  9  2  0
  8 10  1  0
 10 11  2  0
 11 12  1  0
 12 13  2  0
 12 14  1  0
 10 15  1  0
  2 16  1  0
 16 17  2  0
 17 18  1  0
 18 19  2  0
 19 20  1  0
 20 21  2  0
 19 22  1  0
 22 23  2  0
 22 24  1  0
 24 25  1  0
 25 26  1  0
 26 27  1  0
 27 28  1  0
 28 29  2  0
 28 30  1  0
 25 31  1  0
 31 32  2  0
 31 33  1  0
  9  4  1  0
 13  7  1  0
 21 16  1  0
  1 34  1  0
  1 35  1  0
  1 36  1  0
  3 37  1  0
  3 38  1  0
  5 39  1  0
 14 40  1  0
 14 41  1  0
 15 42  1  0
 15 43  1  0
 17 44  1  0
 18 45  1  0
 20 46  1  0
 21 47  1  0
 24 48  1  0
 25 49  1  1
 26 50  1  0
 26 51  1  0
 27 52  1  0
 27 53  1  0
 30 54  1  0
 33 55  1  0
M  END
