
     RDKit          3D

 42 43  0  0  0  0  0  0  0  0999 V2000
 -127.6040   71.1520   37.4850 C   0  0  0  0  0  0  0  0  0  0  0  0
 -128.8130   70.2230   37.4180 C   0  0  0  0  0  0  0  0  0  0  0  0
 -129.2200   69.7570   38.8120 C   0  0  0  0  0  0  0  0  0  0  0  0
 -128.5190   69.0210   36.5430 C   0  0  0  0  0  0  0  0  0  0  0  0
 -128.7320   68.9490   35.3400 O   0  0  0  0  0  0  0  0  0  0  0  0
 -127.9650   68.0230   37.2880 O   0  0  0  0  0  0  0  0  0  0  0  0
 -127.7490   66.7840   36.5860 C   0  0  0  0  0  0  0  0  0  0  0  0
 -128.9450   65.8360   36.7560 C   0  0  2  0  0  0  0  0  0  0  0  0
 -128.7730   64.9060   37.9560 C   0  0  2  0  0  0  0  0  0  0  0  0
 -128.0690   63.7110   37.3350 C   0  0  2  0  0  0  0  0  0  0  0  0
 -128.8030   63.6240   35.9870 C   0  0  1  0  0  0  0  0  0  0  0  0
 -129.0340   64.9920   35.5780 O   0  0  0  0  0  0  0  0  0  0  0  0
 -128.0530   62.9020   34.9680 N   0  0  0  0  0  0  0  0  0  0  0  0
 -126.6770   62.9250   34.9340 C   0  0  0  0  0  0  0  0  0  0  0  0
 -125.9990   62.2160   34.0340 C   0  0  0  0  0  0  0  0  0  0  0  0
 -126.8090   61.4070   33.0970 C   0  0  0  0  0  0  0  0  0  0  0  0
 -128.1100   61.3730   33.1430 N   0  0  0  0  0  0  0  0  0  0  0  0
 -128.7900   62.1130   34.0800 C   0  0  0  0  0  0  0  0  0  0  0  0
 -130.0180   62.0880   34.1140 O   0  0  0  0  0  0  0  0  0  0  0  0
 -126.1580   60.6470   32.1370 N   0  0  0  0  0  0  0  0  0  0  0  0
 -126.9810   60.3000   31.0550 O   0  0  0  0  0  0  0  0  0  0  0  0
 -128.1570   62.5610   38.1610 O   0  0  0  0  0  0  0  0  0  0  0  0
 -130.0510   64.4680   38.4460 O   0  0  0  0  0  0  0  0  0  0  0  0
 -127.3496   71.3475   38.5372 H   0  0  0  0  0  0  0  0  0  0  0  0
 -126.7482   70.6769   36.9831 H   0  0  0  0  0  0  0  0  0  0  0  0
 -127.8427   72.1012   36.9831 H   0  0  0  0  0  0  0  0  0  0  0  0
 -129.6460   70.7904   36.9773 H   0  0  0  0  0  0  0  0  0  0  0  0
 -128.6943   70.3589   39.5679 H   0  0  0  0  0  0  0  0  0  0  0  0
 -130.3061   69.8788   38.9368 H   0  0  0  0  0  0  0  0  0  0  0  0
 -128.9532   68.6972   38.9368 H   0  0  0  0  0  0  0  0  0  0  0  0
 -127.6089   66.9971   35.5160 H   0  0  0  0  0  0  0  0  0  0  0  0
 -126.8554   66.2972   37.0037 H   0  0  0  0  0  0  0  0  0  0  0  0
 -129.8423   66.4549   36.9037 H   0  0  0  0  0  0  0  0  0  0  0  0
 -128.2432   65.3806   38.7951 H   0  0  0  0  0  0  0  0  0  0  0  0
 -126.9795   63.7988   37.2111 H   0  0  0  0  0  0  0  0  0  0  0  0
 -129.7372   63.0554   36.1053 H   0  0  0  0  0  0  0  0  0  0  0  0
 -126.1284   63.5396   35.6628 H   0  0  0  0  0  0  0  0  0  0  0  0
 -124.9000   62.2309   33.9896 H   0  0  0  0  0  0  0  0  0  0  0  0
 -125.1699   60.3656   32.2108 H   0  0  0  0  0  0  0  0  0  0  0  0
 -127.8378   59.9387   31.3947 H   0  0  0  0  0  0  0  0  0  0  0  0
 -128.1360   62.8354   39.1120 H   0  0  0  0  0  0  0  0  0  0  0  0
 -130.0434   64.4706   39.4360 H   0  0  0  0  0  0  0  0  0  0  0  0
  1  2  1  0
  2  3  1  0
  2  4  1  0
  4  5  2  0
  4  6  1  0
  6  7  1  0
  7  8  1  0
  8  9  1  0
  9 10  1  0
 10 11  1  0
 11 12  1  0
 11 13  1  0
 13 14  1  0
 14 15  2  0
 15 16  1  0
 16 17  2  0
 17 18  1  0
 18 19  2  0
 16 20  1  0
 20 21  1  0
 10 22  1  0
  9 23  1  0
 12  8  1  0
 18 13  1  0
  1 24  1  0
  1 25  1  0
  1 26  1  0
  2 27  1  0
  3 28  1  0
  3 29  1  0
  3 30  1  0
  7 31  1  0
  7 32  1  0
  8 33  1  1
  9 34  1  1
 10 35  1  6
 11 36  1  1
 14 37  1  0
 15 38  1  0
 20 39  1  0
 21 40  1  0
 22 41  1  0
 23 42  1  0
M  END
