
     RDKit          3D

 34 36  0  0  0  0  0  0  0  0999 V2000
 -111.7520   69.1370   27.9210 C   0  0  0  0  0  0  0  0  0  0  0  0
 -112.9530   69.1350   28.6170 C   0  0  0  0  0  0  0  0  0  0  0  0
 -113.0990   70.4490   29.1540 C   0  0  0  0  0  0  0  0  0  0  0  0
 -112.0050   71.2040   28.7570 C   0  0  0  0  0  0  0  0  0  0  0  0
 -111.1920   70.3850   28.0190 N   0  0  0  0  0  0  0  0  0  0  0  0
 -111.8940   72.5310   29.1360 C   0  0  0  0  0  0  0  0  0  0  0  0
 -112.8650   73.0460   29.9030 N   0  0  0  0  0  0  0  0  0  0  0  0
 -113.8930   72.2480   30.2470 C   0  0  0  0  0  0  0  0  0  0  0  0
 -114.0850   70.9600   29.9250 N   0  0  0  0  0  0  0  0  0  0  0  0
 -110.8470   73.3580   28.7560 N   0  0  0  0  0  0  0  0  0  0  0  0
 -113.8840   67.9710   28.7450 C   0  0  1  0  0  0  0  0  0  0  0  0
 -113.8910   67.2660   30.1110 C   0  0  1  0  0  0  0  0  0  0  0  0
 -115.2900   66.6590   30.1340 C   0  0  1  0  0  0  0  0  0  0  0  0
 -116.1440   67.7270   29.4520 C   0  0  2  0  0  0  0  0  0  0  0  0
 -115.2610   68.4390   28.4780 N   0  0  0  0  0  0  0  0  0  0  0  0
 -116.6940   68.7530   30.4540 C   0  0  0  0  0  0  0  0  0  0  0  0
 -116.8990   70.0020   29.7940 O   0  0  0  0  0  0  0  0  0  0  0  0
 -115.3000   65.4500   29.3590 O   0  0  0  0  0  0  0  0  0  0  0  0
 -112.9130   66.2250   30.2110 O   0  0  0  0  0  0  0  0  0  0  0  0
 -111.3214   68.2807   27.3811 H   0  0  0  0  0  0  0  0  0  0  0  0
 -110.2937   70.6649   27.6000 H   0  0  0  0  0  0  0  0  0  0  0  0
 -114.6731   72.7098   30.8700 H   0  0  0  0  0  0  0  0  0  0  0  0
 -110.8236   74.3378   29.0727 H   0  0  0  0  0  0  0  0  0  0  0  0
 -110.0930   72.9922   28.1571 H   0  0  0  0  0  0  0  0  0  0  0  0
 -113.5185   67.2296   28.0193 H   0  0  0  0  0  0  0  0  0  0  0  0
 -113.6547   67.9517   30.9380 H   0  0  0  0  0  0  0  0  0  0  0  0
 -115.6443   66.4019   31.1431 H   0  0  0  0  0  0  0  0  0  0  0  0
 -117.0040   67.2431   28.9660 H   0  0  0  0  0  0  0  0  0  0  0  0
 -115.5354   68.2071   27.5127 H   0  0  0  0  0  0  0  0  0  0  0  0
 -117.6503   68.3920   30.8604 H   0  0  0  0  0  0  0  0  0  0  0  0
 -115.9733   68.8864   31.2742 H   0  0  0  0  0  0  0  0  0  0  0  0
 -117.0163   70.7166   30.4690 H   0  0  0  0  0  0  0  0  0  0  0  0
 -115.3065   64.6685   29.9667 H   0  0  0  0  0  0  0  0  0  0  0  0
 -112.7322   66.0326   31.1652 H   0  0  0  0  0  0  0  0  0  0  0  0
  1  2  2  0
  2  3  1  0
  3  4  2  0
  4  5  1  0
  4  6  1  0
  6  7  2  0
  7  8  1  0
  8  9  2  0
  6 10  1  0
  2 11  1  0
 11 12  1  0
 12 13  1  0
 13 14  1  0
 14 15  1  0
 14 16  1  0
 16 17  1  0
 13 18  1  0
 12 19  1  0
  5  1  1  0
  9  3  1  0
 15 11  1  0
  1 20  1  0
  5 21  1  0
  8 22  1  0
 10 23  1  0
 10 24  1  0
 11 25  1  6
 12 26  1  1
 13 27  1  1
 14 28  1  6
 15 29  1  0
 16 30  1  0
 16 31  1  0
 17 32  1  0
 18 33  1  0
 19 34  1  0
M  END
