
     RDKit          3D

 67 69  0  0  0  0  0  0  0  0999 V2000
 -123.4290   48.9160   39.7200 C   0  0  0  0  0  0  0  0  0  0  0  0
 -124.3630   49.8850   39.0360 C   0  0  0  0  0  0  0  0  0  0  0  0
 -123.9630   51.3530   39.0430 C   0  0  2  0  0  0  0  0  0  0  0  0
 -125.0820   50.8990   39.9190 C   0  0  1  0  0  0  0  0  0  0  0  0
 -126.3350   51.6420   39.5190 C   0  0  2  0  0  0  0  0  0  0  0  0
 -125.9220   52.4560   38.3540 N   0  0  0  0  0  0  0  0  0  0  0  0
 -124.4920   52.3530   38.0700 C   0  0  0  0  0  0  0  0  0  0  0  0
 -126.8590   52.9320   37.4610 C   0  0  0  0  0  0  0  0  0  0  0  0
 -128.0670   52.7370   37.6550 O   0  0  0  0  0  0  0  0  0  0  0  0
 -126.3910   53.7710   36.2410 C   0  0  2  0  0  0  0  0  0  0  0  0
 -126.0820   55.2600   36.6010 C   0  0  0  0  0  0  0  0  0  0  0  0
 -126.5600   55.6540   38.0110 C   0  0  0  0  0  0  0  0  0  0  0  0
 -126.7880   56.1820   35.5800 C   0  0  0  0  0  0  0  0  0  0  0  0
 -124.5680   55.5350   36.5070 C   0  0  0  0  0  0  0  0  0  0  0  0
 -127.4690   53.6530   35.2530 N   0  0  0  0  0  0  0  0  0  0  0  0
 -127.5120   52.5660   34.3810 C   0  0  0  0  0  0  0  0  0  0  0  0
 -126.5640   51.7850   34.2820 O   0  0  0  0  0  0  0  0  0  0  0  0
 -128.8130   52.4490   33.5530 C   0  0  0  0  0  0  0  0  0  0  0  0
 -129.8850   52.9900   34.1940 F   0  0  0  0  0  0  0  0  0  0  0  0
 -129.1350   51.1460   33.3020 F   0  0  0  0  0  0  0  0  0  0  0  0
 -128.7230   53.0620   32.3430 F   0  0  0  0  0  0  0  0  0  0  0  0
 -126.9070   52.5210   40.6710 C   0  0  0  0  0  0  0  0  0  0  0  0
 -126.2050   53.1230   41.4810 O   0  0  0  0  0  0  0  0  0  0  0  0
 -128.2810   52.4970   40.7930 N   0  0  0  0  0  0  0  0  0  0  0  0
 -128.9590   53.1140   41.9280 C   0  0  1  0  0  0  0  0  0  0  0  0
 -129.7060   54.3630   41.4400 C   0  0  0  0  0  0  0  0  0  0  0  0
 -129.7820   55.4960   42.4670 C   0  0  2  0  0  0  0  0  0  0  0  0
 -131.0220   55.5040   43.3680 C   0  0  0  0  0  0  0  0  0  0  0  0
 -131.1960   56.9710   43.7170 C   0  0  0  0  0  0  0  0  0  0  0  0
 -130.7210   57.6410   42.5460 N   0  0  0  0  0  0  0  0  0  0  0  0
 -129.8860   56.8510   41.7870 C   0  0  0  0  0  0  0  0  0  0  0  0
 -129.3080   57.2060   40.7750 O   0  0  0  0  0  0  0  0  0  0  0  0
 -129.8770   52.1440   42.5670 C   0  0  0  0  0  0  0  0  0  0  0  0
 -130.6240   51.4070   43.0650 N   0  0  0  0  0  0  0  0  0  0  0  0
 -125.0600   49.2870   37.8380 C   0  0  0  0  0  0  0  0  0  0  0  0
 -123.5282   49.0190   40.8107 H   0  0  0  0  0  0  0  0  0  0  0  0
 -123.6858   47.8882   39.4239 H   0  0  0  0  0  0  0  0  0  0  0  0
 -122.3925   49.1348   39.4239 H   0  0  0  0  0  0  0  0  0  0  0  0
 -122.9565   51.7939   39.0941 H   0  0  0  0  0  0  0  0  0  0  0  0
 -125.3716   50.8022   40.9758 H   0  0  0  0  0  0  0  0  0  0  0  0
 -127.1570   50.9518   39.2783 H   0  0  0  0  0  0  0  0  0  0  0  0
 -124.3289   52.0088   37.0381 H   0  0  0  0  0  0  0  0  0  0  0  0
 -123.9857   53.3246   38.1677 H   0  0  0  0  0  0  0  0  0  0  0  0
 -125.4349   53.3924   35.8504 H   0  0  0  0  0  0  0  0  0  0  0  0
 -125.9411   55.1439   38.7638 H   0  0  0  0  0  0  0  0  0  0  0  0
 -126.4689   56.7428   38.1381 H   0  0  0  0  0  0  0  0  0  0  0  0
 -127.6114   55.3567   38.1381 H   0  0  0  0  0  0  0  0  0  0  0  0
 -127.3717   56.9443   36.1168 H   0  0  0  0  0  0  0  0  0  0  0  0
 -126.0342   56.6748   34.9485 H   0  0  0  0  0  0  0  0  0  0  0  0
 -127.4603   55.5827   34.9485 H   0  0  0  0  0  0  0  0  0  0  0  0
 -124.1457   55.6117   37.5198 H   0  0  0  0  0  0  0  0  0  0  0  0
 -124.0785   54.7111   35.9671 H   0  0  0  0  0  0  0  0  0  0  0  0
 -124.3995   56.4784   35.9671 H   0  0  0  0  0  0  0  0  0  0  0  0
 -128.1989   54.3780   35.2032 H   0  0  0  0  0  0  0  0  0  0  0  0
 -128.8419   52.0321   40.0649 H   0  0  0  0  0  0  0  0  0  0  0  0
 -128.2241   53.4167   42.6884 H   0  0  0  0  0  0  0  0  0  0  0  0
 -129.1919   54.7437   40.5452 H   0  0  0  0  0  0  0  0  0  0  0  0
 -130.7416   54.0511   41.2394 H   0  0  0  0  0  0  0  0  0  0  0  0
 -128.8674   55.3227   43.0531 H   0  0  0  0  0  0  0  0  0  0  0  0
 -131.9016   55.1207   42.8300 H   0  0  0  0  0  0  0  0  0  0  0  0
 -130.9118   54.8625   44.2547 H   0  0  0  0  0  0  0  0  0  0  0  0
 -132.2530   57.2091   43.9069 H   0  0  0  0  0  0  0  0  0  0  0  0
 -130.6594   57.2648   44.6312 H   0  0  0  0  0  0  0  0  0  0  0  0
 -130.9753   58.6077   42.2976 H   0  0  0  0  0  0  0  0  0  0  0  0
 -125.8540   48.6058   38.1780 H   0  0  0  0  0  0  0  0  0  0  0  0
 -125.5018   50.0914   37.2315 H   0  0  0  0  0  0  0  0  0  0  0  0
 -124.3321   48.7281   37.2315 H   0  0  0  0  0  0  0  0  0  0  0  0
  1  2  1  0
  2  3  1  0
  3  4  1  0
  4  5  1  0
  5  6  1  0
  6  7  1  0
  6  8  1  0
  8  9  2  0
  8 10  1  0
 10 11  1  0
 11 12  1  0
 11 13  1  0
 11 14  1  0
 10 15  1  0
 15 16  1  0
 16 17  2  0
 16 18  1  0
 18 19  1  0
 18 20  1  0
 18 21  1  0
  5 22  1  0
 22 23  2  0
 22 24  1  0
 24 25  1  0
 25 26  1  0
 26 27  1  0
 27 28  1  0
 28 29  1  0
 29 30  1  0
 30 31  1  0
 31 32  2  0
 25 33  1  0
 33 34  3  0
  2 35  1  0
  4  2  1  0
  7  3  1  0
 31 27  1  0
  1 36  1  0
  1 37  1  0
  1 38  1  0
  3 39  1  1
  4 40  1  1
  5 41  1  6
  7 42  1  0
  7 43  1  0
 10 44  1  6
 12 45  1  0
 12 46  1  0
 12 47  1  0
 13 48  1  0
 13 49  1  0
 13 50  1  0
 14 51  1  0
 14 52  1  0
 14 53  1  0
 15 54  1  0
 24 55  1  0
 25 56  1  1
 26 57  1  0
 26 58  1  0
 27 59  1  1
 28 60  1  0
 28 61  1  0
 29 62  1  0
 29 63  1  0
 30 64  1  0
 35 65  1  0
 35 66  1  0
 35 67  1  0
M  END
