
     RDKit          3D

 60 61  0  0  0  0  0  0  0  0999 V2000
  -20.6360   68.0010   16.2810 C   0  0  0  0  0  0  0  0  0  0  0  0
  -22.0460   67.9140   16.8460 C   0  0  0  0  0  0  0  0  0  0  0  0
  -22.2330   69.2750   17.5230 C   0  0  2  0  0  0  0  0  0  0  0  0
  -21.4110   70.1840   16.7170 N   0  0  0  0  0  0  0  0  0  0  0  0
  -20.5490   69.4440   15.8060 C   0  0  0  0  0  0  0  0  0  0  0  0
  -21.6720   71.5370   16.7310 C   0  0  0  0  0  0  0  0  0  0  0  0
  -22.5370   71.9860   17.4940 O   0  0  0  0  0  0  0  0  0  0  0  0
  -20.9800   72.5050   15.7370 C   0  0  2  0  0  0  0  0  0  0  0  0
  -20.1490   73.5140   16.5620 C   0  0  0  0  0  0  0  0  0  0  0  0
  -19.1010   72.8420   17.4600 C   0  0  0  0  0  0  0  0  0  0  0  0
  -19.0490   73.5100   18.8390 C   0  0  0  0  0  0  0  0  0  0  0  0
  -19.6550   72.6540   19.9540 C   0  0  0  0  0  0  0  0  0  0  0  0
  -21.0940   72.8360   20.0960 N   0  0  0  0  0  0  0  0  0  0  0  0
  -21.8850   73.2220   14.8040 N   0  0  0  0  0  0  0  0  0  0  0  0
  -21.2380   73.8910   13.6350 C   0  0  1  0  0  0  0  0  0  0  0  0
  -20.8350   72.9110   12.5160 C   0  0  0  0  0  0  0  0  0  0  0  0
  -19.3250   72.8820   12.2360 C   0  0  0  0  0  0  0  0  0  0  0  0
  -18.5800   71.7370   12.8710 C   0  0  0  0  0  0  0  0  0  0  0  0
  -17.8750   71.9240   14.0670 C   0  0  0  0  0  0  0  0  0  0  0  0
  -17.1910   70.8610   14.6600 C   0  0  0  0  0  0  0  0  0  0  0  0
  -17.2040   69.6030   14.0630 C   0  0  0  0  0  0  0  0  0  0  0  0
  -17.8980   69.4070   12.8720 C   0  0  0  0  0  0  0  0  0  0  0  0
  -18.5810   70.4680   12.2750 C   0  0  0  0  0  0  0  0  0  0  0  0
  -22.0720   75.0880   13.1700 C   0  0  0  0  0  0  0  0  0  0  0  0
  -22.6150   75.1920   12.0790 O   0  0  0  0  0  0  0  0  0  0  0  0
  -22.0310   76.1250   14.0280 O   0  0  0  0  0  0  0  0  0  0  0  0
  -21.8830   69.1690   19.0140 C   0  0  0  0  0  0  0  0  0  0  0  0
  -22.6050   68.6690   19.8680 O   0  0  0  0  0  0  0  0  0  0  0  0
  -20.6780   69.6510   19.3890 O   0  0  0  0  0  0  0  0  0  0  0  0
  -19.8849   67.7940   17.0576 H   0  0  0  0  0  0  0  0  0  0  0  0
  -20.4414   67.2686   15.4837 H   0  0  0  0  0  0  0  0  0  0  0  0
  -22.7845   67.7670   16.0441 H   0  0  0  0  0  0  0  0  0  0  0  0
  -22.1851   67.0663   17.5331 H   0  0  0  0  0  0  0  0  0  0  0  0
  -23.2640   69.6577   17.5460 H   0  0  0  0  0  0  0  0  0  0  0  0
  -20.9097   69.5343   14.7708 H   0  0  0  0  0  0  0  0  0  0  0  0
  -19.5162   69.8225   15.8096 H   0  0  0  0  0  0  0  0  0  0  0  0
  -20.3537   71.8870   15.0769 H   0  0  0  0  0  0  0  0  0  0  0  0
  -19.6313   74.1916   15.8671 H   0  0  0  0  0  0  0  0  0  0  0  0
  -20.8471   74.0521   17.2201 H   0  0  0  0  0  0  0  0  0  0  0  0
  -19.3613   71.7805   17.5842 H   0  0  0  0  0  0  0  0  0  0  0  0
  -18.1146   72.9440   16.9839 H   0  0  0  0  0  0  0  0  0  0  0  0
  -17.9970   73.7131   19.0883 H   0  0  0  0  0  0  0  0  0  0  0  0
  -19.6474   74.4309   18.7758 H   0  0  0  0  0  0  0  0  0  0  0  0
  -19.4563   71.5955   19.7301 H   0  0  0  0  0  0  0  0  0  0  0  0
  -19.1895   72.9692   20.8995 H   0  0  0  0  0  0  0  0  0  0  0  0
  -21.3391   72.8670   21.0959 H   0  0  0  0  0  0  0  0  0  0  0  0
  -21.3744   73.7192   19.6462 H   0  0  0  0  0  0  0  0  0  0  0  0
  -22.5635   72.5388   14.4383 H   0  0  0  0  0  0  0  0  0  0  0  0
  -20.2722   74.2981   13.9687 H   0  0  0  0  0  0  0  0  0  0  0  0
  -21.1536   71.8996   12.8085 H   0  0  0  0  0  0  0  0  0  0  0  0
  -21.3267   73.2553   11.5942 H   0  0  0  0  0  0  0  0  0  0  0  0
  -19.1813   72.8202   11.1472 H   0  0  0  0  0  0  0  0  0  0  0  0
  -18.9130   73.8000   12.6804 H   0  0  0  0  0  0  0  0  0  0  0  0
  -17.8602   72.9158   14.5425 H   0  0  0  0  0  0  0  0  0  0  0  0
  -16.6412   71.0174   15.5998 H   0  0  0  0  0  0  0  0  0  0  0  0
  -16.6667   68.7653   14.5317 H   0  0  0  0  0  0  0  0  0  0  0  0
  -17.9081   68.4134   12.4002 H   0  0  0  0  0  0  0  0  0  0  0  0
  -19.1232   70.3075   11.3314 H   0  0  0  0  0  0  0  0  0  0  0  0
  -22.5346   76.9534   13.8277 H   0  0  0  0  0  0  0  0  0  0  0  0
  -20.4014   69.6080   20.3386 H   0  0  0  0  0  0  0  0  0  0  0  0
  1  2  1  0
  2  3  1  0
  3  4  1  0
  4  5  1  0
  4  6  1  0
  6  7  2  0
  6  8  1  0
  8  9  1  0
  9 10  1  0
 10 11  1  0
 11 12  1  0
 12 13  1  0
  8 14  1  0
 14 15  1  0
 15 16  1  0
 16 17  1  0
 17 18  1  0
 18 19  2  0
 19 20  1  0
 20 21  2  0
 21 22  1  0
 22 23  2  0
 15 24  1  0
 24 25  2  0
 24 26  1  0
  3 27  1  0
 27 28  2  0
 27 29  1  0
  5  1  1  0
 23 18  1  0
  1 30  1  0
  1 31  1  0
  2 32  1  0
  2 33  1  0
  3 34  1  1
  5 35  1  0
  5 36  1  0
  8 37  1  6
  9 38  1  0
  9 39  1  0
 10 40  1  0
 10 41  1  0
 11 42  1  0
 11 43  1  0
 12 44  1  0
 12 45  1  0
 13 46  1  0
 13 47  1  0
 14 48  1  0
 15 49  1  1
 16 50  1  0
 16 51  1  0
 17 52  1  0
 17 53  1  0
 19 54  1  0
 20 55  1  0
 21 56  1  0
 22 57  1  0
 23 58  1  0
 26 59  1  0
 29 60  1  0
M  END
