
     RDKit          3D

 46 47  0  0  0  0  0  0  0  0999 V2000
 -128.6230   68.4300   36.4830 C   0  0  0  0  0  0  0  0  0  0  0  0
 -129.2410   67.0380   36.4330 C   0  0  0  0  0  0  0  0  0  0  0  0
 -129.3950   66.5660   34.9920 C   0  0  0  0  0  0  0  0  0  0  0  0
 -128.3460   66.1540   37.1350 O   0  0  0  0  0  0  0  0  0  0  0  0
 -128.8320   64.9070   37.4320 C   0  0  0  0  0  0  0  0  0  0  0  0
 -129.9970   64.6900   37.7430 O   0  0  0  0  0  0  0  0  0  0  0  0
 -127.7110   63.8400   37.3180 C   0  0  0  0  0  0  0  0  0  0  0  0
 -127.3250   63.4440   38.7480 C   0  0  0  0  0  0  0  0  0  0  0  0
 -126.5730   64.4760   36.5090 C   0  0  0  0  0  0  0  0  0  0  0  0
 -128.3410   62.7590   36.6120 O   0  0  0  0  0  0  0  0  0  0  0  0
 -128.0970   62.3940   35.3270 C   0  0  0  0  0  0  0  0  0  0  0  0
 -128.8110   62.7520   34.1870 C   0  0  0  0  0  0  0  0  0  0  0  0
 -128.4150   62.2860   32.9240 C   0  0  0  0  0  0  0  0  0  0  0  0
 -127.2910   61.4640   32.7960 C   0  0  0  0  0  0  0  0  0  0  0  0
 -126.5850   61.0830   33.9370 C   0  0  0  0  0  0  0  0  0  0  0  0
 -126.9850   61.5550   35.1890 C   0  0  0  0  0  0  0  0  0  0  0  0
 -126.8510   60.9420   31.4780 C   0  0  0  0  0  0  0  0  0  0  0  0
 -127.2580   59.8470   31.0990 O   0  0  0  0  0  0  0  0  0  0  0  0
 -125.9300   61.7120   30.6050 C   0  0  0  0  0  0  0  0  0  0  0  0
 -125.8950   63.1060   30.7370 C   0  0  0  0  0  0  0  0  0  0  0  0
 -125.0510   63.8670   29.9230 C   0  0  0  0  0  0  0  0  0  0  0  0
 -124.2540   63.2350   28.9710 C   0  0  0  0  0  0  0  0  0  0  0  0
 -124.2980   61.8480   28.8190 C   0  0  0  0  0  0  0  0  0  0  0  0
 -125.1410   61.0850   29.6310 C   0  0  0  0  0  0  0  0  0  0  0  0
 -123.2130   64.1690   27.9700 Cl  0  0  0  0  0  0  0  0  0  0  0  0
 -128.4881   68.7338   37.5316 H   0  0  0  0  0  0  0  0  0  0  0  0
 -127.6465   68.4161   35.9768 H   0  0  0  0  0  0  0  0  0  0  0  0
 -129.2883   69.1449   35.9768 H   0  0  0  0  0  0  0  0  0  0  0  0
 -130.2405   67.0486   36.8922 H   0  0  0  0  0  0  0  0  0  0  0  0
 -129.7362   65.5203   34.9832 H   0  0  0  0  0  0  0  0  0  0  0  0
 -130.1338   67.1971   34.4764 H   0  0  0  0  0  0  0  0  0  0  0  0
 -128.4261   66.6399   34.4764 H   0  0  0  0  0  0  0  0  0  0  0  0
 -127.9079   64.0420   39.4640 H   0  0  0  0  0  0  0  0  0  0  0  0
 -127.5383   62.3761   38.9030 H   0  0  0  0  0  0  0  0  0  0  0  0
 -126.2519   63.6299   38.9030 H   0  0  0  0  0  0  0  0  0  0  0  0
 -125.8237   64.8948   37.1969 H   0  0  0  0  0  0  0  0  0  0  0  0
 -126.1015   63.7106   35.8751 H   0  0  0  0  0  0  0  0  0  0  0  0
 -126.9779   65.2786   35.8751 H   0  0  0  0  0  0  0  0  0  0  0  0
 -129.6918   63.4048   34.2768 H   0  0  0  0  0  0  0  0  0  0  0  0
 -128.9913   62.5686   32.0307 H   0  0  0  0  0  0  0  0  0  0  0  0
 -125.7166   60.4134   33.8510 H   0  0  0  0  0  0  0  0  0  0  0  0
 -126.4156   61.2620   36.0834 H   0  0  0  0  0  0  0  0  0  0  0  0
 -126.5330   63.6029   31.4827 H   0  0  0  0  0  0  0  0  0  0  0  0
 -125.0163   64.9609   30.0337 H   0  0  0  0  0  0  0  0  0  0  0  0
 -123.6700   61.3566   28.0612 H   0  0  0  0  0  0  0  0  0  0  0  0
 -125.1854   59.9930   29.5059 H   0  0  0  0  0  0  0  0  0  0  0  0
  1  2  1  0
  2  3  1  0
  2  4  1  0
  4  5  1  0
  5  6  2  0
  5  7  1  0
  7  8  1  0
  7  9  1  0
  7 10  1  0
 10 11  1  0
 11 12  2  0
 12 13  1  0
 13 14  2  0
 14 15  1  0
 15 16  2  0
 14 17  1  0
 17 18  2  0
 17 19  1  0
 19 20  2  0
 20 21  1  0
 21 22  2  0
 22 23  1  0
 23 24  2  0
 22 25  1  0
 16 11  1  0
 24 19  1  0
  1 26  1  0
  1 27  1  0
  1 28  1  0
  2 29  1  0
  3 30  1  0
  3 31  1  0
  3 32  1  0
  8 33  1  0
  8 34  1  0
  8 35  1  0
  9 36  1  0
  9 37  1  0
  9 38  1  0
 12 39  1  0
 13 40  1  0
 15 41  1  0
 16 42  1  0
 20 43  1  0
 21 44  1  0
 23 45  1  0
 24 46  1  0
M  END
