
     RDKit          3D

 65 67  0  0  0  0  0  0  0  0999 V2000
 -128.9030   64.2260   40.6610 C   0  0  0  0  0  0  0  0  0  0  0  0
 -127.9500   63.7630   39.5640 C   0  0  1  0  0  0  0  0  0  0  0  0
 -127.3150   62.4400   40.0060 C   0  0  0  0  0  0  0  0  0  0  0  0
 -126.3070   62.3550   40.6980 O   0  0  0  0  0  0  0  0  0  0  0  0
 -128.0030   61.3870   39.4820 O   0  0  0  0  0  0  0  0  0  0  0  0
 -127.5060   60.0770   39.8130 C   0  0  0  0  0  0  0  0  0  0  0  0
 -128.1100   59.6940   41.1580 C   0  0  0  0  0  0  0  0  0  0  0  0
 -127.9220   59.0860   38.7330 C   0  0  0  0  0  0  0  0  0  0  0  0
 -128.6210   63.5540   38.2800 N   0  0  0  0  0  0  0  0  0  0  0  0
 -128.8580   64.7600   37.2170 P   0  0  2  0  0  5  0  0  0  0  0  0
 -130.2900   65.1540   37.0170 O   0  0  0  0  0  0  0  0  0  0  0  0
 -128.1370   64.2880   35.8530 O   0  0  0  0  0  0  0  0  0  0  0  0
 -128.9150   63.6090   34.8750 C   0  0  0  0  0  0  0  0  0  0  0  0
 -128.4220   62.1690   34.7580 C   0  0  2  0  0  0  0  0  0  0  0  0
 -126.9940   61.9920   35.2700 C   0  0  2  0  0  0  0  0  0  0  0  0
 -126.5470   60.7630   34.4940 C   0  0  1  0  0  0  0  0  0  0  0  0
 -127.3090   60.8800   33.1630 C   0  0  1  0  0  0  0  0  0  0  0  0
 -128.4200   61.7750   33.3670 O   0  0  0  0  0  0  0  0  0  0  0  0
 -126.5800   61.2920   31.9590 N   0  0  0  0  0  0  0  0  0  0  0  0
 -126.0430   62.5680   31.9110 C   0  0  0  0  0  0  0  0  0  0  0  0
 -125.3450   63.0090   30.8620 C   0  0  0  0  0  0  0  0  0  0  0  0
 -125.1320   62.1090   29.7220 C   0  0  0  0  0  0  0  0  0  0  0  0
 -124.5110   62.4750   28.7320 O   0  0  0  0  0  0  0  0  0  0  0  0
 -125.6740   60.8640   29.8460 N   0  0  0  0  0  0  0  0  0  0  0  0
 -126.4010   60.3990   30.9100 C   0  0  0  0  0  0  0  0  0  0  0  0
 -126.8630   59.2620   30.8760 O   0  0  0  0  0  0  0  0  0  0  0  0
 -125.0470   60.5510   34.4290 C   0  0  0  0  0  0  0  0  0  0  0  0
 -127.0610   59.6480   35.1270 F   0  0  0  0  0  0  0  0  0  0  0  0
 -126.9090   61.7970   36.6800 O   0  0  0  0  0  0  0  0  0  0  0  0
 -127.9110   65.9730   37.7200 O   0  0  0  0  0  0  0  0  0  0  0  0
 -128.2770   67.2830   37.6090 C   0  0  0  0  0  0  0  0  0  0  0  0
 -128.4930   67.9950   38.7860 C   0  0  0  0  0  0  0  0  0  0  0  0
 -128.8580   69.3400   38.7230 C   0  0  0  0  0  0  0  0  0  0  0  0
 -129.0240   69.9600   37.4850 C   0  0  0  0  0  0  0  0  0  0  0  0
 -128.8300   69.2350   36.3090 C   0  0  0  0  0  0  0  0  0  0  0  0
 -128.4620   67.8890   36.3710 C   0  0  0  0  0  0  0  0  0  0  0  0
 -128.4611   64.0113   41.6452 H   0  0  0  0  0  0  0  0  0  0  0  0
 -129.0751   65.3082   40.5645 H   0  0  0  0  0  0  0  0  0  0  0  0
 -129.8601   63.6925   40.5645 H   0  0  0  0  0  0  0  0  0  0  0  0
 -127.1982   64.5525   39.4173 H   0  0  0  0  0  0  0  0  0  0  0  0
 -126.4077   60.0682   39.8734 H   0  0  0  0  0  0  0  0  0  0  0  0
 -127.4821   60.0922   41.9686 H   0  0  0  0  0  0  0  0  0  0  0  0
 -129.1230   60.1151   41.2383 H   0  0  0  0  0  0  0  0  0  0  0  0
 -128.1611   58.5981   41.2383 H   0  0  0  0  0  0  0  0  0  0  0  0
 -128.3066   58.1697   39.2047 H   0  0  0  0  0  0  0  0  0  0  0  0
 -128.7080   59.5341   38.1073 H   0  0  0  0  0  0  0  0  0  0  0  0
 -127.0517   58.8388   38.1073 H   0  0  0  0  0  0  0  0  0  0  0  0
 -128.0728   62.8374   37.7832 H   0  0  0  0  0  0  0  0  0  0  0  0
 -129.9726   63.6131   35.1775 H   0  0  0  0  0  0  0  0  0  0  0  0
 -128.8147   64.1157   33.9038 H   0  0  0  0  0  0  0  0  0  0  0  0
 -129.1012   61.5546   35.3673 H   0  0  0  0  0  0  0  0  0  0  0  0
 -126.3686   62.8837   35.1159 H   0  0  0  0  0  0  0  0  0  0  0  0
 -127.5875   59.8418   32.9293 H   0  0  0  0  0  0  0  0  0  0  0  0
 -126.1971   63.2413   32.7671 H   0  0  0  0  0  0  0  0  0  0  0  0
 -124.9361   64.0301   30.8520 H   0  0  0  0  0  0  0  0  0  0  0  0
 -125.5223   60.2103   29.0646 H   0  0  0  0  0  0  0  0  0  0  0  0
 -124.6403   60.4935   35.4494 H   0  0  0  0  0  0  0  0  0  0  0  0
 -124.8320   59.6135   33.8952 H   0  0  0  0  0  0  0  0  0  0  0  0
 -124.5806   61.3922   33.8952 H   0  0  0  0  0  0  0  0  0  0  0  0
 -127.2581   62.5979   37.1455 H   0  0  0  0  0  0  0  0  0  0  0  0
 -128.3764   67.4992   39.7610 H   0  0  0  0  0  0  0  0  0  0  0  0
 -129.0148   69.9114   39.6498 H   0  0  0  0  0  0  0  0  0  0  0  0
 -129.3081   71.0215   37.4357 H   0  0  0  0  0  0  0  0  0  0  0  0
 -128.9668   69.7234   35.3329 H   0  0  0  0  0  0  0  0  0  0  0  0
 -128.3193   67.3115   35.4457 H   0  0  0  0  0  0  0  0  0  0  0  0
  1  2  1  0
  2  3  1  0
  3  4  2  0
  3  5  1  0
  5  6  1  0
  6  7  1  0
  6  8  1  0
  2  9  1  0
  9 10  1  0
 10 11  2  0
 10 12  1  6
 12 13  1  0
 13 14  1  0
 14 15  1  0
 15 16  1  0
 16 17  1  0
 17 18  1  0
 17 19  1  0
 19 20  1  0
 20 21  2  0
 21 22  1  0
 22 23  2  0
 22 24  1  0
 24 25  1  0
 25 26  2  0
 16 27  1  0
 16 28  1  1
 15 29  1  0
 10 30  1  0
 30 31  1  0
 31 32  2  0
 32 33  1  0
 33 34  2  0
 34 35  1  0
 35 36  2  0
 18 14  1  0
 25 19  1  0
 36 31  1  0
  1 37  1  0
  1 38  1  0
  1 39  1  0
  2 40  1  6
  6 41  1  0
  7 42  1  0
  7 43  1  0
  7 44  1  0
  8 45  1  0
  8 46  1  0
  8 47  1  0
  9 48  1  0
 13 49  1  0
 13 50  1  0
 14 51  1  1
 15 52  1  6
 17 53  1  6
 20 54  1  0
 21 55  1  0
 24 56  1  0
 27 57  1  0
 27 58  1  0
 27 59  1  0
 29 60  1  0
 32 61  1  0
 33 62  1  0
 34 63  1  0
 35 64  1  0
 36 65  1  0
M  END
