
     RDKit          3D

 43 46  0  0  0  0  0  0  0  0999 V2000
   -8.7670   -3.5690   14.0360 C   0  0  0  0  0  0  0  0  0  0  0  0
   -7.5600   -4.4720   14.1880 C   0  0  0  0  0  0  0  0  0  0  0  0
   -6.4310   -4.2820   12.8140 S   0  0  0  0  0  0  0  0  0  0  0  0
   -5.4270   -5.3210   12.8790 O   0  0  0  0  0  0  0  0  0  0  0  0
   -7.1880   -4.0320   11.6070 O   0  0  0  0  0  0  0  0  0  0  0  0
   -5.6710   -2.8220   13.2260 N   0  0  0  0  0  0  0  0  0  0  0  0
   -4.3270   -2.7520   13.8870 C   0  0  0  0  0  0  0  0  0  0  0  0
   -3.7400   -2.0060   12.6640 C   0  0  0  0  0  0  0  0  0  0  0  0
   -5.2150   -1.7890   12.2400 C   0  0  0  0  0  0  0  0  0  0  0  0
   -2.9070   -2.8040   11.6680 C   0  0  0  0  0  0  0  0  0  0  0  0
   -2.1310   -3.8580   12.3350 C   0  0  0  0  0  0  0  0  0  0  0  0
   -1.5470   -4.7140   12.8540 N   0  0  0  0  0  0  0  0  0  0  0  0
   -3.1020   -0.7140   12.9970 N   0  0  0  0  0  0  0  0  0  0  0  0
   -2.6680   -0.3380   14.2340 C   0  0  0  0  0  0  0  0  0  0  0  0
   -2.0950    0.9120   14.0890 C   0  0  0  0  0  0  0  0  0  0  0  0
   -2.1850    1.1610   12.7040 C   0  0  0  0  0  0  0  0  0  0  0  0
   -2.7960    0.1780   12.0360 N   0  0  0  0  0  0  0  0  0  0  0  0
   -1.5090    1.6610   15.1780 C   0  0  0  0  0  0  0  0  0  0  0  0
   -2.2690    2.4250   16.0740 C   0  0  0  0  0  0  0  0  0  0  0  0
   -3.6390    2.7310   16.3210 C   0  0  0  0  0  0  0  0  0  0  0  0
   -3.6980    3.5790   17.4080 C   0  0  0  0  0  0  0  0  0  0  0  0
   -2.4150    3.7940   17.8380 N   0  0  0  0  0  0  0  0  0  0  0  0
   -1.5430    3.0940   17.0510 C   0  0  0  0  0  0  0  0  0  0  0  0
   -0.2130    3.0830   17.2270 N   0  0  0  0  0  0  0  0  0  0  0  0
    0.4010    2.3070   16.3220 C   0  0  0  0  0  0  0  0  0  0  0  0
   -0.1620    1.5980   15.3260 N   0  0  0  0  0  0  0  0  0  0  0  0
   -9.1424   -3.2881   15.0311 H   0  0  0  0  0  0  0  0  0  0  0  0
   -8.4794   -2.6625   13.4833 H   0  0  0  0  0  0  0  0  0  0  0  0
   -9.5555   -4.1008   13.4833 H   0  0  0  0  0  0  0  0  0  0  0  0
   -7.0360   -4.2161   15.1207 H   0  0  0  0  0  0  0  0  0  0  0  0
   -7.9071   -5.5155   14.2111 H   0  0  0  0  0  0  0  0  0  0  0  0
   -4.3170   -2.1626   14.8157 H   0  0  0  0  0  0  0  0  0  0  0  0
   -3.8460   -3.6711   14.2529 H   0  0  0  0  0  0  0  0  0  0  0  0
   -5.5943   -0.7773   12.4463 H   0  0  0  0  0  0  0  0  0  0  0  0
   -5.5014   -1.8748   11.1814 H   0  0  0  0  0  0  0  0  0  0  0  0
   -3.5791   -3.2676   10.9309 H   0  0  0  0  0  0  0  0  0  0  0  0
   -2.2027   -2.1154   11.1784 H   0  0  0  0  0  0  0  0  0  0  0  0
   -2.7565   -0.9164   15.1655 H   0  0  0  0  0  0  0  0  0  0  0  0
   -1.7931    2.0696   12.2235 H   0  0  0  0  0  0  0  0  0  0  0  0
   -4.4987    2.3567   15.7458 H   0  0  0  0  0  0  0  0  0  0  0  0
   -4.6107    4.0055   17.8497 H   0  0  0  0  0  0  0  0  0  0  0  0
   -2.1480    4.3919   18.6331 H   0  0  0  0  0  0  0  0  0  0  0  0
    1.4961    2.2421   16.4034 H   0  0  0  0  0  0  0  0  0  0  0  0
  1  2  1  0
  2  3  1  0
  3  4  2  0
  3  5  2  0
  3  6  1  0
  6  7  1  0
  7  8  1  0
  8  9  1  0
  8 10  1  0
 10 11  1  0
 11 12  3  0
  8 13  1  0
 13 14  1  0
 14 15  2  0
 15 16  1  0
 16 17  2  0
 15 18  1  0
 18 19  2  0
 19 20  1  0
 20 21  2  0
 21 22  1  0
 22 23  1  0
 23 24  2  0
 24 25  1  0
 25 26  2  0
  9  6  1  0
 17 13  1  0
 26 18  1  0
 23 19  1  0
  1 27  1  0
  1 28  1  0
  1 29  1  0
  2 30  1  0
  2 31  1  0
  7 32  1  0
  7 33  1  0
  9 34  1  0
  9 35  1  0
 10 36  1  0
 10 37  1  0
 14 38  1  0
 16 39  1  0
 20 40  1  0
 21 41  1  0
 22 42  1  0
 25 43  1  0
M  END
