
     RDKit          3D

 42 43  0  0  0  0  0  0  0  0999 V2000
  -12.8230    8.3630   21.5370 C   0  0  0  0  0  0  0  0  0  0  0  0
  -13.2090    8.1060   20.0830 C   0  0  0  0  0  0  0  0  0  0  0  0
  -14.6630    7.6600   19.9760 C   0  0  0  0  0  0  0  0  0  0  0  0
  -12.3060    7.0580   19.4650 C   0  0  0  0  0  0  0  0  0  0  0  0
  -12.5020    6.4880   18.4000 O   0  0  0  0  0  0  0  0  0  0  0  0
  -11.2220    6.8430   20.2640 O   0  0  0  0  0  0  0  0  0  0  0  0
  -10.0320    6.4110   19.5770 C   0  0  0  0  0  0  0  0  0  0  0  0
   -8.9420    5.9870   20.5730 C   0  0  2  0  0  0  0  0  0  0  0  0
   -8.0660    7.1640   20.9990 C   0  0  2  0  0  0  0  0  0  0  0  0
   -6.9590    7.1320   19.9580 C   0  0  2  0  0  0  0  0  0  0  0  0
   -6.7510    5.6140   19.8200 C   0  0  1  0  0  0  0  0  0  0  0  0
   -8.0690    5.0270   19.9190 O   0  0  0  0  0  0  0  0  0  0  0  0
   -6.1110    5.2320   18.5680 N   0  0  0  0  0  0  0  0  0  0  0  0
   -5.6330    6.1750   17.6860 C   0  0  0  0  0  0  0  0  0  0  0  0
   -4.9990    5.8150   16.5730 C   0  0  0  0  0  0  0  0  0  0  0  0
   -4.8340    4.3610   16.3560 C   0  0  0  0  0  0  0  0  0  0  0  0
   -5.2710    3.4720   17.2010 N   0  0  0  0  0  0  0  0  0  0  0  0
   -5.9240    3.8660   18.3450 C   0  0  0  0  0  0  0  0  0  0  0  0
   -6.3450    3.0240   19.1350 O   0  0  0  0  0  0  0  0  0  0  0  0
   -4.1810    3.9270   15.2130 N   0  0  0  0  0  0  0  0  0  0  0  0
   -4.4710    2.5940   14.8830 O   0  0  0  0  0  0  0  0  0  0  0  0
   -5.8240    7.8740   20.3740 O   0  0  0  0  0  0  0  0  0  0  0  0
   -7.4780    6.9190   22.2870 O   0  0  0  0  0  0  0  0  0  0  0  0
  -13.5527    7.8772   22.2015 H   0  0  0  0  0  0  0  0  0  0  0  0
  -11.8213    7.9509   21.7288 H   0  0  0  0  0  0  0  0  0  0  0  0
  -12.8168    9.4461   21.7288 H   0  0  0  0  0  0  0  0  0  0  0  0
  -13.0876    9.0510   19.5332 H   0  0  0  0  0  0  0  0  0  0  0  0
  -15.0823    7.5314   20.9848 H   0  0  0  0  0  0  0  0  0  0  0  0
  -15.2413    8.4221   19.4330 H   0  0  0  0  0  0  0  0  0  0  0  0
  -14.7145    6.7048   19.4330 H   0  0  0  0  0  0  0  0  0  0  0  0
  -10.2804    5.5562   18.9308 H   0  0  0  0  0  0  0  0  0  0  0  0
   -9.6502    7.2505   18.9775 H   0  0  0  0  0  0  0  0  0  0  0  0
   -9.4440    5.5702   21.4586 H   0  0  0  0  0  0  0  0  0  0  0  0
   -8.6215    8.1111   21.0653 H   0  0  0  0  0  0  0  0  0  0  0  0
   -7.1836    7.6121   18.9941 H   0  0  0  0  0  0  0  0  0  0  0  0
   -6.0699    5.2566   20.6063 H   0  0  0  0  0  0  0  0  0  0  0  0
   -5.7776    7.2432   17.9050 H   0  0  0  0  0  0  0  0  0  0  0  0
   -4.6190    6.5566   15.8549 H   0  0  0  0  0  0  0  0  0  0  0  0
   -3.5470    4.5226   14.6615 H   0  0  0  0  0  0  0  0  0  0  0  0
   -4.5858    2.0661   15.7126 H   0  0  0  0  0  0  0  0  0  0  0  0
   -5.7891    7.8968   21.3631 H   0  0  0  0  0  0  0  0  0  0  0  0
   -8.1153    7.1845   22.9966 H   0  0  0  0  0  0  0  0  0  0  0  0
  1  2  1  0
  2  3  1  0
  2  4  1  0
  4  5  2  0
  4  6  1  0
  6  7  1  0
  7  8  1  0
  8  9  1  0
  9 10  1  0
 10 11  1  0
 11 12  1  0
 11 13  1  0
 13 14  1  0
 14 15  2  0
 15 16  1  0
 16 17  2  0
 17 18  1  0
 18 19  2  0
 16 20  1  0
 20 21  1  0
 10 22  1  0
  9 23  1  0
 12  8  1  0
 18 13  1  0
  1 24  1  0
  1 25  1  0
  1 26  1  0
  2 27  1  0
  3 28  1  0
  3 29  1  0
  3 30  1  0
  7 31  1  0
  7 32  1  0
  8 33  1  1
  9 34  1  1
 10 35  1  6
 11 36  1  1
 14 37  1  0
 15 38  1  0
 20 39  1  0
 21 40  1  0
 22 41  1  0
 23 42  1  0
M  END
