
     RDKit          3D

 76 79  0  0  0  0  0  0  0  0999 V2000
   -2.0710   -7.1890   10.4740 C   0  0  0  0  0  0  0  0  0  0  0  0
   -2.6030   -6.0110    9.6550 C   0  0  0  0  0  0  0  0  0  0  0  0
   -1.6780   -5.6240    8.5050 C   0  0  0  0  0  0  0  0  0  0  0  0
   -3.0270   -4.8390   10.5270 C   0  0  0  0  0  0  0  0  0  0  0  0
   -2.1910   -3.8670   11.0890 C   0  0  0  0  0  0  0  0  0  0  0  0
   -3.0350   -2.8960   11.7180 C   0  0  0  0  0  0  0  0  0  0  0  0
   -4.3550   -3.2940   11.5450 C   0  0  0  0  0  0  0  0  0  0  0  0
   -4.3280   -4.5260   10.9020 N   0  0  0  0  0  0  0  0  0  0  0  0
   -5.5140   -5.3610   10.7180 C   0  0  0  0  0  0  0  0  0  0  0  0
   -5.5760   -6.5180   11.7140 C   0  0  0  0  0  0  0  0  0  0  0  0
   -6.4790   -7.6670   11.2480 C   0  0  2  0  0  0  0  0  0  0  0  0
   -7.8430   -7.8080   11.9450 C   0  0  0  0  0  0  0  0  0  0  0  0
   -7.9620   -7.1230   13.3150 C   0  0  2  0  0  0  0  0  0  0  0  0
   -8.6240   -8.0000   14.3820 C   0  0  0  0  0  0  0  0  0  0  0  0
   -8.4570   -7.4550   15.7730 C   0  0  0  0  0  0  0  0  0  0  0  0
   -9.1560   -7.7070   16.7410 O   0  0  0  0  0  0  0  0  0  0  0  0
   -7.4320   -6.5880   15.8640 O   0  0  0  0  0  0  0  0  0  0  0  0
   -8.6310   -5.8720   13.2120 O   0  0  0  0  0  0  0  0  0  0  0  0
   -5.7640   -8.8990   11.3420 O   0  0  0  0  0  0  0  0  0  0  0  0
   -5.5820   -2.6330   12.0030 C   0  0  0  0  0  0  0  0  0  0  0  0
   -6.2640   -3.1090   13.1320 C   0  0  0  0  0  0  0  0  0  0  0  0
   -7.4160   -2.4630   13.5830 C   0  0  0  0  0  0  0  0  0  0  0  0
   -7.8810   -1.3410   12.9080 C   0  0  0  0  0  0  0  0  0  0  0  0
   -7.2150   -0.8510   11.7900 C   0  0  0  0  0  0  0  0  0  0  0  0
   -6.0620   -1.4940   11.3390 C   0  0  0  0  0  0  0  0  0  0  0  0
   -8.9890   -0.7230   13.3370 F   0  0  0  0  0  0  0  0  0  0  0  0
   -2.6520   -1.7000   12.4580 C   0  0  0  0  0  0  0  0  0  0  0  0
   -2.9910   -1.5560   13.8090 C   0  0  0  0  0  0  0  0  0  0  0  0
   -2.6540   -0.3900   14.4990 C   0  0  0  0  0  0  0  0  0  0  0  0
   -1.9820    0.6400   13.8410 C   0  0  0  0  0  0  0  0  0  0  0  0
   -1.6450    0.5040   12.4950 C   0  0  0  0  0  0  0  0  0  0  0  0
   -1.9780   -0.6620   11.8040 C   0  0  0  0  0  0  0  0  0  0  0  0
   -0.7170   -3.8730   11.0190 C   0  0  0  0  0  0  0  0  0  0  0  0
   -0.1150   -3.0700   10.3160 O   0  0  0  0  0  0  0  0  0  0  0  0
   -0.1390   -4.8410   11.8170 N   0  0  0  0  0  0  0  0  0  0  0  0
    1.2270   -5.1490   11.9620 C   0  0  0  0  0  0  0  0  0  0  0  0
    1.9980   -4.7930   13.0700 C   0  0  0  0  0  0  0  0  0  0  0  0
    3.3520   -5.1380   13.1310 C   0  0  0  0  0  0  0  0  0  0  0  0
    3.9460   -5.8400   12.0840 C   0  0  0  0  0  0  0  0  0  0  0  0
    3.1880   -6.1980   10.9740 C   0  0  0  0  0  0  0  0  0  0  0  0
    1.8340   -5.8530   10.9130 C   0  0  0  0  0  0  0  0  0  0  0  0
   -2.1720   -6.9654   11.5463 H   0  0  0  0  0  0  0  0  0  0  0  0
   -2.6478   -8.0939   10.2322 H   0  0  0  0  0  0  0  0  0  0  0  0
   -1.0107   -7.3546   10.2322 H   0  0  0  0  0  0  0  0  0  0  0  0
   -3.5268   -6.3589    9.1696 H   0  0  0  0  0  0  0  0  0  0  0  0
   -0.7346   -5.2293    8.9102 H   0  0  0  0  0  0  0  0  0  0  0  0
   -1.4696   -6.5104    7.8879 H   0  0  0  0  0  0  0  0  0  0  0  0
   -2.1629   -4.8533    7.8879 H   0  0  0  0  0  0  0  0  0  0  0  0
   -6.4094   -4.7354   10.8480 H   0  0  0  0  0  0  0  0  0  0  0  0
   -5.4651   -5.7926    9.7074 H   0  0  0  0  0  0  0  0  0  0  0  0
   -4.5584   -6.9096   11.8591 H   0  0  0  0  0  0  0  0  0  0  0  0
   -6.0034   -6.1237   12.6478 H   0  0  0  0  0  0  0  0  0  0  0  0
   -6.7349   -7.4076   10.2101 H   0  0  0  0  0  0  0  0  0  0  0  0
   -8.6077   -7.3758   11.2829 H   0  0  0  0  0  0  0  0  0  0  0  0
   -7.9749   -8.8836   12.1338 H   0  0  0  0  0  0  0  0  0  0  0  0
   -6.9288   -6.9490   13.6500 H   0  0  0  0  0  0  0  0  0  0  0  0
   -9.6989   -8.0719   14.1599 H   0  0  0  0  0  0  0  0  0  0  0  0
   -8.1332   -8.9839   14.3518 H   0  0  0  0  0  0  0  0  0  0  0  0
   -7.2209   -6.1604   16.7316 H   0  0  0  0  0  0  0  0  0  0  0  0
   -8.8181   -5.5222   14.1190 H   0  0  0  0  0  0  0  0  0  0  0  0
   -5.6296   -9.1306   12.2951 H   0  0  0  0  0  0  0  0  0  0  0  0
   -5.8893   -3.9956   13.6646 H   0  0  0  0  0  0  0  0  0  0  0  0
   -7.9521   -2.8394   14.4667 H   0  0  0  0  0  0  0  0  0  0  0  0
   -7.5948    0.0377   11.2647 H   0  0  0  0  0  0  0  0  0  0  0  0
   -5.5271   -1.1065   10.4594 H   0  0  0  0  0  0  0  0  0  0  0  0
   -3.5251   -2.3650   14.3288 H   0  0  0  0  0  0  0  0  0  0  0  0
   -2.9184   -0.2836   15.5614 H   0  0  0  0  0  0  0  0  0  0  0  0
   -1.7180    1.5595   14.3840 H   0  0  0  0  0  0  0  0  0  0  0  0
   -1.1157    1.3171   11.9767 H   0  0  0  0  0  0  0  0  0  0  0  0
   -1.7100   -0.7656   10.7422 H   0  0  0  0  0  0  0  0  0  0  0  0
   -0.7901   -5.4097   12.3771 H   0  0  0  0  0  0  0  0  0  0  0  0
    1.5376   -4.2376   13.9004 H   0  0  0  0  0  0  0  0  0  0  0  0
    3.9505   -4.8540   14.0091 H   0  0  0  0  0  0  0  0  0  0  0  0
    5.0111   -6.1102   12.1352 H   0  0  0  0  0  0  0  0  0  0  0  0
    3.6530   -6.7518   10.1451 H   0  0  0  0  0  0  0  0  0  0  0  0
    1.2392   -6.1372   10.0324 H   0  0  0  0  0  0  0  0  0  0  0  0
  1  2  1  0
  2  3  1  0
  2  4  1  0
  4  5  2  0
  5  6  1  0
  6  7  2  0
  7  8  1  0
  8  9  1  0
  9 10  1  0
 10 11  1  0
 11 12  1  0
 12 13  1  0
 13 14  1  0
 14 15  1  0
 15 16  2  0
 15 17  1  0
 13 18  1  0
 11 19  1  0
  7 20  1  0
 20 21  2  0
 21 22  1  0
 22 23  2  0
 23 24  1  0
 24 25  2  0
 23 26  1  0
  6 27  1  0
 27 28  2  0
 28 29  1  0
 29 30  2  0
 30 31  1  0
 31 32  2  0
  5 33  1  0
 33 34  2  0
 33 35  1  0
 35 36  1  0
 36 37  2  0
 37 38  1  0
 38 39  2  0
 39 40  1  0
 40 41  2  0
  8  4  1  0
 25 20  1  0
 32 27  1  0
 41 36  1  0
  1 42  1  0
  1 43  1  0
  1 44  1  0
  2 45  1  0
  3 46  1  0
  3 47  1  0
  3 48  1  0
  9 49  1  0
  9 50  1  0
 10 51  1  0
 10 52  1  0
 11 53  1  6
 12 54  1  0
 12 55  1  0
 13 56  1  1
 14 57  1  0
 14 58  1  0
 17 59  1  0
 18 60  1  0
 19 61  1  0
 21 62  1  0
 22 63  1  0
 24 64  1  0
 25 65  1  0
 28 66  1  0
 29 67  1  0
 30 68  1  0
 31 69  1  0
 32 70  1  0
 35 71  1  0
 37 72  1  0
 38 73  1  0
 39 74  1  0
 40 75  1  0
 41 76  1  0
M  END
