
     RDKit          3D

 52 54  0  0  0  0  0  0  0  0999 V2000
   -9.2570   -1.1420   10.6750 C   0  0  0  0  0  0  0  0  0  0  0  0
   -9.8060   -2.2570   11.3660 O   0  0  0  0  0  0  0  0  0  0  0  0
   -9.7130   -2.1320   12.7850 C   0  0  0  0  0  0  0  0  0  0  0  0
   -8.4150   -2.7310   13.3250 C   0  0  0  0  0  0  0  0  0  0  0  0
   -8.0250   -3.8070   12.4750 O   0  0  0  0  0  0  0  0  0  0  0  0
   -6.6900   -4.1090   12.3950 C   0  0  0  0  0  0  0  0  0  0  0  0
   -6.3740   -5.4220   12.0130 C   0  0  0  0  0  0  0  0  0  0  0  0
   -5.0330   -5.8020   11.9130 C   0  0  0  0  0  0  0  0  0  0  0  0
   -3.9950   -4.9220   12.1920 C   0  0  0  0  0  0  0  0  0  0  0  0
   -4.2990   -3.6170   12.5960 C   0  0  0  0  0  0  0  0  0  0  0  0
   -5.6570   -3.2170   12.6860 C   0  0  0  0  0  0  0  0  0  0  0  0
   -3.1900   -2.7910   12.8730 C   0  0  0  0  0  0  0  0  0  0  0  0
   -1.9260   -3.2270   12.7310 N   0  0  0  0  0  0  0  0  0  0  0  0
   -1.7650   -4.4910   12.3310 C   0  0  0  0  0  0  0  0  0  0  0  0
   -2.7410   -5.3640   12.0630 N   0  0  0  0  0  0  0  0  0  0  0  0
   -3.4210   -1.4680   13.3400 N   0  0  0  0  0  0  0  0  0  0  0  0
   -2.5040   -0.3930   13.4160 C   0  0  0  0  0  0  0  0  0  0  0  0
   -1.7550   -0.0590   12.2770 C   0  0  0  0  0  0  0  0  0  0  0  0
   -0.7900    0.9510   12.3180 C   0  0  0  0  0  0  0  0  0  0  0  0
   -0.5410    1.6280   13.5100 C   0  0  0  0  0  0  0  0  0  0  0  0
   -1.2490    1.2850   14.6620 C   0  0  0  0  0  0  0  0  0  0  0  0
   -2.2140    0.2720   14.6140 C   0  0  0  0  0  0  0  0  0  0  0  0
   -0.9800    1.9600   15.8940 C   0  0  0  0  0  0  0  0  0  0  0  0
   -0.7530    2.5280   16.9280 C   0  0  0  0  0  0  0  0  0  0  0  0
   -7.4430   -6.2380   11.7470 O   0  0  0  0  0  0  0  0  0  0  0  0
   -7.4300   -7.5990   12.1870 C   0  0  0  0  0  0  0  0  0  0  0  0
   -8.2840   -7.8150   13.4410 C   0  0  0  0  0  0  0  0  0  0  0  0
   -7.8950   -6.9820   14.5410 O   0  0  0  0  0  0  0  0  0  0  0  0
   -8.3850   -7.4370   15.7960 C   0  0  0  0  0  0  0  0  0  0  0  0
   -8.8928   -0.4024   11.4032 H   0  0  0  0  0  0  0  0  0  0  0  0
   -8.4210   -1.4773   10.0436 H   0  0  0  0  0  0  0  0  0  0  0  0
  -10.0325   -0.6838   10.0436 H   0  0  0  0  0  0  0  0  0  0  0  0
   -9.7505   -1.0654   13.0514 H   0  0  0  0  0  0  0  0  0  0  0  0
  -10.5545   -2.6817   13.2319 H   0  0  0  0  0  0  0  0  0  0  0  0
   -7.6280   -1.9625   13.3355 H   0  0  0  0  0  0  0  0  0  0  0  0
   -8.5674   -3.0975   14.3509 H   0  0  0  0  0  0  0  0  0  0  0  0
   -4.7919   -6.8297   11.6038 H   0  0  0  0  0  0  0  0  0  0  0  0
   -5.8995   -2.1880   12.9898 H   0  0  0  0  0  0  0  0  0  0  0  0
   -0.7313   -4.8474   12.2107 H   0  0  0  0  0  0  0  0  0  0  0  0
   -4.3776   -1.2665   13.6643 H   0  0  0  0  0  0  0  0  0  0  0  0
   -1.9305   -0.6013   11.3362 H   0  0  0  0  0  0  0  0  0  0  0  0
   -0.2272    1.2114   11.4095 H   0  0  0  0  0  0  0  0  0  0  0  0
    0.2111    2.4300   13.5426 H   0  0  0  0  0  0  0  0  0  0  0  0
   -2.7530   -0.0061   15.5317 H   0  0  0  0  0  0  0  0  0  0  0  0
   -0.5452    3.0481   17.8747 H   0  0  0  0  0  0  0  0  0  0  0  0
   -7.8209   -8.2353   11.3793 H   0  0  0  0  0  0  0  0  0  0  0  0
   -6.3916   -7.8605   12.4389 H   0  0  0  0  0  0  0  0  0  0  0  0
   -9.3328   -7.5967   13.1913 H   0  0  0  0  0  0  0  0  0  0  0  0
   -8.1424   -8.8593   13.7564 H   0  0  0  0  0  0  0  0  0  0  0  0
   -7.8406   -6.9315   16.6073 H   0  0  0  0  0  0  0  0  0  0  0  0
   -9.4578   -7.2076   15.8758 H   0  0  0  0  0  0  0  0  0  0  0  0
   -8.2356   -8.5239   15.8758 H   0  0  0  0  0  0  0  0  0  0  0  0
  1  2  1  0
  2  3  1  0
  3  4  1  0
  4  5  1  0
  5  6  1  0
  6  7  2  0
  7  8  1  0
  8  9  2  0
  9 10  1  0
 10 11  2  0
 10 12  1  0
 12 13  2  0
 13 14  1  0
 14 15  2  0
 12 16  1  0
 16 17  1  0
 17 18  2  0
 18 19  1  0
 19 20  2  0
 20 21  1  0
 21 22  2  0
 21 23  1  0
 23 24  3  0
  7 25  1  0
 25 26  1  0
 26 27  1  0
 27 28  1  0
 28 29  1  0
 11  6  1  0
 15  9  1  0
 22 17  1  0
  1 30  1  0
  1 31  1  0
  1 32  1  0
  3 33  1  0
  3 34  1  0
  4 35  1  0
  4 36  1  0
  8 37  1  0
 11 38  1  0
 14 39  1  0
 16 40  1  0
 18 41  1  0
 19 42  1  0
 20 43  1  0
 22 44  1  0
 24 45  1  0
 26 46  1  0
 26 47  1  0
 27 48  1  0
 27 49  1  0
 29 50  1  0
 29 51  1  0
 29 52  1  0
M  END
