
     RDKit          3D

 54 56  0  0  0  0  0  0  0  0999 V2000
   -7.9080   -5.7120   14.2250 C   0  0  0  0  0  0  0  0  0  0  0  0
   -7.0660   -6.3200   13.1350 C   0  0  0  0  0  0  0  0  0  0  0  0
   -7.1420   -7.5070   12.8380 O   0  0  0  0  0  0  0  0  0  0  0  0
   -6.2390   -5.4250   12.5020 N   0  0  0  0  0  0  0  0  0  0  0  0
   -5.3910   -5.8080   11.3800 C   0  0  1  0  0  0  0  0  0  0  0  0
   -6.1000   -5.7170   10.0050 C   0  0  0  0  0  0  0  0  0  0  0  0
   -5.9470   -4.4000    9.2460 C   0  0  0  0  0  0  0  0  0  0  0  0
   -6.1810   -3.2190   10.1480 C   0  0  0  0  0  0  0  0  0  0  0  0
   -7.3670   -2.4720   10.0250 C   0  0  0  0  0  0  0  0  0  0  0  0
   -7.6460   -1.4020   10.8820 C   0  0  0  0  0  0  0  0  0  0  0  0
   -6.7450   -1.1090   11.9190 C   0  0  0  0  0  0  0  0  0  0  0  0
   -5.5560   -1.8530   12.0450 C   0  0  0  0  0  0  0  0  0  0  0  0
   -5.2420   -2.9020   11.1500 C   0  0  0  0  0  0  0  0  0  0  0  0
   -3.9570   -3.6930   11.2720 C   0  0  0  0  0  0  0  0  0  0  0  0
   -2.8700   -2.9080   11.0840 C   0  0  0  0  0  0  0  0  0  0  0  0
   -1.5440   -3.1090   11.0650 C   0  0  0  0  0  0  0  0  0  0  0  0
   -0.8540   -4.2120   11.3870 C   0  0  0  0  0  0  0  0  0  0  0  0
   -1.5850   -5.3830   12.0350 C   0  0  0  0  0  0  0  0  0  0  0  0
   -1.0290   -5.9920   12.9330 O   0  0  0  0  0  0  0  0  0  0  0  0
   -2.9920   -5.8410   11.7240 C   0  0  0  0  0  0  0  0  0  0  0  0
   -4.0470   -5.0410   11.4690 C   0  0  0  0  0  0  0  0  0  0  0  0
    0.5130   -4.3850   11.2740 O   0  0  0  0  0  0  0  0  0  0  0  0
    1.0130   -5.2240   10.2430 C   0  0  0  0  0  0  0  0  0  0  0  0
   -4.6450   -1.4970   13.0180 O   0  0  0  0  0  0  0  0  0  0  0  0
   -4.6280   -2.4460   14.0830 C   0  0  0  0  0  0  0  0  0  0  0  0
   -6.9010   -0.0660   12.8030 O   0  0  0  0  0  0  0  0  0  0  0  0
   -8.1270   -0.0800   13.5300 C   0  0  0  0  0  0  0  0  0  0  0  0
   -8.7600   -0.6130   10.7720 O   0  0  0  0  0  0  0  0  0  0  0  0
   -8.7040    0.4910    9.8760 C   0  0  0  0  0  0  0  0  0  0  0  0
   -7.5043   -6.0035   15.2059 H   0  0  0  0  0  0  0  0  0  0  0  0
   -7.8916   -4.6160   14.1328 H   0  0  0  0  0  0  0  0  0  0  0  0
   -8.9432   -6.0723   14.1328 H   0  0  0  0  0  0  0  0  0  0  0  0
   -6.2171   -4.4493   12.8314 H   0  0  0  0  0  0  0  0  0  0  0  0
   -5.1646   -6.8815   11.4590 H   0  0  0  0  0  0  0  0  0  0  0  0
   -5.6982   -6.5187    9.3679 H   0  0  0  0  0  0  0  0  0  0  0  0
   -7.1743   -5.8038   10.2247 H   0  0  0  0  0  0  0  0  0  0  0  0
   -4.9288   -4.3400    8.8340 H   0  0  0  0  0  0  0  0  0  0  0  0
   -6.6951   -4.3749    8.4399 H   0  0  0  0  0  0  0  0  0  0  0  0
   -8.0899   -2.7348    9.2386 H   0  0  0  0  0  0  0  0  0  0  0  0
   -3.1377   -1.8563   10.9043 H   0  0  0  0  0  0  0  0  0  0  0  0
   -0.9391   -2.2496   10.7402 H   0  0  0  0  0  0  0  0  0  0  0  0
   -3.1713   -6.9261   11.7039 H   0  0  0  0  0  0  0  0  0  0  0  0
    1.5275   -6.0874   10.6900 H   0  0  0  0  0  0  0  0  0  0  0  0
    0.1778   -5.5770    9.6202 H   0  0  0  0  0  0  0  0  0  0  0  0
    1.7209   -4.6574    9.6202 H   0  0  0  0  0  0  0  0  0  0  0  0
   -4.6375   -1.9158   15.0467 H   0  0  0  0  0  0  0  0  0  0  0  0
   -5.5147   -3.0931   14.0117 H   0  0  0  0  0  0  0  0  0  0  0  0
   -3.7187   -3.0609   14.0117 H   0  0  0  0  0  0  0  0  0  0  0  0
   -7.9135   -0.0776   14.6091 H   0  0  0  0  0  0  0  0  0  0  0  0
   -8.7171    0.8115   13.2710 H   0  0  0  0  0  0  0  0  0  0  0  0
   -8.6966   -0.9847   13.2710 H   0  0  0  0  0  0  0  0  0  0  0  0
   -8.6565    1.4277   10.4508 H   0  0  0  0  0  0  0  0  0  0  0  0
   -7.8091    0.4039    9.2423 H   0  0  0  0  0  0  0  0  0  0  0  0
   -9.6031    0.4949    9.2423 H   0  0  0  0  0  0  0  0  0  0  0  0
  1  2  1  0
  2  3  2  0
  2  4  1  0
  4  5  1  0
  5  6  1  0
  6  7  1  0
  7  8  1  0
  8  9  2  0
  9 10  1  0
 10 11  2  0
 11 12  1  0
 12 13  2  0
 13 14  1  0
 14 15  2  0
 15 16  1  0
 16 17  2  0
 17 18  1  0
 18 19  2  0
 18 20  1  0
 20 21  2  0
 17 22  1  0
 22 23  1  0
 12 24  1  0
 24 25  1  0
 11 26  1  0
 26 27  1  0
 10 28  1  0
 28 29  1  0
 21  5  1  0
 13  8  1  0
 21 14  1  0
  1 30  1  0
  1 31  1  0
  1 32  1  0
  4 33  1  0
  5 34  1  1
  6 35  1  0
  6 36  1  0
  7 37  1  0
  7 38  1  0
  9 39  1  0
 15 40  1  0
 16 41  1  0
 20 42  1  0
 23 43  1  0
 23 44  1  0
 23 45  1  0
 25 46  1  0
 25 47  1  0
 25 48  1  0
 27 49  1  0
 27 50  1  0
 27 51  1  0
 29 52  1  0
 29 53  1  0
 29 54  1  0
M  END
