
     RDKit          3D

 49 50  0  0  0  0  0  0  0  0999 V2000
 -129.0400   70.0040   36.9030 C   0  0  0  0  0  0  0  0  0  0  0  0
 -128.7760   68.7960   36.2460 C   0  0  0  0  0  0  0  0  0  0  0  0
 -128.3550   67.6800   36.9710 C   0  0  0  0  0  0  0  0  0  0  0  0
 -128.2040   67.7790   38.3570 C   0  0  0  0  0  0  0  0  0  0  0  0
 -128.4680   68.9810   39.0190 C   0  0  0  0  0  0  0  0  0  0  0  0
 -128.8820   70.0980   38.2890 C   0  0  0  0  0  0  0  0  0  0  0  0
 -129.1710   71.3740   38.9980 C   0  0  0  0  0  0  0  0  0  0  0  0
 -130.3640   71.7140   39.3690 N   0  0  0  0  0  0  0  0  0  0  0  0
 -128.1600   72.2380   39.2930 N   0  0  0  0  0  0  0  0  0  0  0  0
 -128.0650   66.4470   36.4550 O   0  0  0  0  0  0  0  0  0  0  0  0
 -128.4250   65.3110   37.2380 C   0  0  0  0  0  0  0  0  0  0  0  0
 -129.2340   64.3470   36.3670 C   0  0  0  0  0  0  0  0  0  0  0  0
 -128.3660   63.6550   35.3100 C   0  0  0  0  0  0  0  0  0  0  0  0
 -129.0790   62.5030   34.6010 C   0  0  0  0  0  0  0  0  0  0  0  0
 -128.8690   62.4830   33.0890 C   0  0  0  0  0  0  0  0  0  0  0  0
 -127.9330   61.4450   32.7940 O   0  0  0  0  0  0  0  0  0  0  0  0
 -126.6760   61.8240   32.4140 C   0  0  0  0  0  0  0  0  0  0  0  0
 -125.6000   62.0740   33.2690 C   0  0  0  0  0  0  0  0  0  0  0  0
 -124.3590   62.4570   32.7450 C   0  0  0  0  0  0  0  0  0  0  0  0
 -124.1910   62.5890   31.3630 C   0  0  0  0  0  0  0  0  0  0  0  0
 -125.2660   62.3450   30.5060 C   0  0  0  0  0  0  0  0  0  0  0  0
 -126.5020   61.9610   31.0340 C   0  0  0  0  0  0  0  0  0  0  0  0
 -122.8800   63.0080   30.7980 C   0  0  0  0  0  0  0  0  0  0  0  0
 -121.7580   62.8140   31.4130 N   0  0  0  0  0  0  0  0  0  0  0  0
 -122.8240   63.6320   29.5880 N   0  0  0  0  0  0  0  0  0  0  0  0
 -129.3723   70.8806   36.3276 H   0  0  0  0  0  0  0  0  0  0  0  0
 -128.9007   68.7263   35.1553 H   0  0  0  0  0  0  0  0  0  0  0  0
 -127.8739   66.9017   38.9326 H   0  0  0  0  0  0  0  0  0  0  0  0
 -128.3503   69.0475   40.1107 H   0  0  0  0  0  0  0  0  0  0  0  0
 -130.5163   72.6079   39.8575 H   0  0  0  0  0  0  0  0  0  0  0  0
 -128.3634   73.1204   39.7838 H   0  0  0  0  0  0  0  0  0  0  0  0
 -127.1922   72.0089   39.0252 H   0  0  0  0  0  0  0  0  0  0  0  0
 -127.5159   64.8082   37.5995 H   0  0  0  0  0  0  0  0  0  0  0  0
 -129.0272   65.6286   38.1020 H   0  0  0  0  0  0  0  0  0  0  0  0
 -129.6851   63.5794   37.0130 H   0  0  0  0  0  0  0  0  0  0  0  0
 -130.0042   64.9312   35.8421 H   0  0  0  0  0  0  0  0  0  0  0  0
 -128.0728   64.4007   34.5564 H   0  0  0  0  0  0  0  0  0  0  0  0
 -127.4964   63.2282   35.8313 H   0  0  0  0  0  0  0  0  0  0  0  0
 -128.7036   61.5558   35.0154 H   0  0  0  0  0  0  0  0  0  0  0  0
 -130.1568   62.6408   34.7720 H   0  0  0  0  0  0  0  0  0  0  0  0
 -129.8237   62.2821   32.5808 H   0  0  0  0  0  0  0  0  0  0  0  0
 -128.4893   63.4546   32.7400 H   0  0  0  0  0  0  0  0  0  0  0  0
 -125.7277   61.9698   34.3566 H   0  0  0  0  0  0  0  0  0  0  0  0
 -123.5147   62.6544   33.4219 H   0  0  0  0  0  0  0  0  0  0  0  0
 -125.1406   62.4546   29.4187 H   0  0  0  0  0  0  0  0  0  0  0  0
 -127.3462   61.7647   30.3566 H   0  0  0  0  0  0  0  0  0  0  0  0
 -120.8746   63.1216   30.9820 H   0  0  0  0  0  0  0  0  0  0  0  0
 -121.9151   63.9210   29.1992 H   0  0  0  0  0  0  0  0  0  0  0  0
 -123.6906   63.8147   29.0622 H   0  0  0  0  0  0  0  0  0  0  0  0
  1  2  2  0
  2  3  1  0
  3  4  2  0
  4  5  1  0
  5  6  2  0
  6  7  1  0
  7  8  2  3
  7  9  1  0
  3 10  1  0
 10 11  1  0
 11 12  1  0
 12 13  1  0
 13 14  1  0
 14 15  1  0
 15 16  1  0
 16 17  1  0
 17 18  2  0
 18 19  1  0
 19 20  2  0
 20 21  1  0
 21 22  2  0
 20 23  1  0
 23 24  2  3
 23 25  1  0
  6  1  1  0
 22 17  1  0
  1 26  1  0
  2 27  1  0
  4 28  1  0
  5 29  1  0
  8 30  1  0
  9 31  1  0
  9 32  1  0
 11 33  1  0
 11 34  1  0
 12 35  1  0
 12 36  1  0
 13 37  1  0
 13 38  1  0
 14 39  1  0
 14 40  1  0
 15 41  1  0
 15 42  1  0
 18 43  1  0
 19 44  1  0
 21 45  1  0
 22 46  1  0
 24 47  1  0
 25 48  1  0
 25 49  1  0
M  END
