
     RDKit          3D

 56 58  0  0  0  0  0  0  0  0999 V2000
   -9.0210   62.3460   23.6340 C   0  0  0  0  0  0  0  0  0  0  0  0
   -8.2980   63.6030   23.1670 C   0  0  0  0  0  0  0  0  0  0  0  0
   -6.9250   63.7270   23.6860 N   0  0  0  0  0  0  0  0  0  0  0  0
   -6.7570   63.1920   25.0440 C   0  0  0  0  0  0  0  0  0  0  0  0
   -6.6430   64.3220   26.0600 C   0  0  0  0  0  0  0  0  0  0  0  0
   -5.9500   63.1500   22.7350 C   0  0  0  0  0  0  0  0  0  0  0  0
   -4.5970   63.8780   22.5930 C   0  0  0  0  0  0  0  0  0  0  0  0
   -4.7310   65.3160   22.7260 N   0  0  0  0  0  0  0  0  0  0  0  0
   -4.1570   65.9940   23.7800 C   0  0  0  0  0  0  0  0  0  0  0  0
   -3.5580   65.4190   24.6840 O   0  0  0  0  0  0  0  0  0  0  0  0
   -4.2560   67.4560   23.6910 C   0  0  0  0  0  0  0  0  0  0  0  0
   -3.3970   68.2390   22.9290 C   0  0  0  0  0  0  0  0  0  0  0  0
   -3.7740   69.5490   23.0690 N   0  0  0  0  0  0  0  0  0  0  0  0
   -4.8480   69.6450   23.9140 C   0  0  0  0  0  0  0  0  0  0  0  0
   -5.1740   68.3660   24.3390 C   0  0  0  0  0  0  0  0  0  0  0  0
   -6.2490   68.0140   25.3110 C   0  0  0  0  0  0  0  0  0  0  0  0
   -5.3720   70.9370   24.1500 C   0  0  0  0  0  0  0  0  0  0  0  0
   -4.7690   71.8620   24.9110 C   0  0  0  0  0  0  0  0  0  0  0  0
   -5.3070   73.2050   25.1700 C   0  0  0  0  0  0  0  0  0  0  0  0
   -4.3720   73.8500   25.9890 C   0  0  0  0  0  0  0  0  0  0  0  0
   -4.5420   75.1440   26.4430 C   0  0  0  0  0  0  0  0  0  0  0  0
   -5.7060   75.8090   26.0510 C   0  0  0  0  0  0  0  0  0  0  0  0
   -6.6470   75.1660   25.2320 C   0  0  0  0  0  0  0  0  0  0  0  0
   -6.4620   73.8590   24.7810 C   0  0  0  0  0  0  0  0  0  0  0  0
   -7.7550   75.8280   24.8720 F   0  0  0  0  0  0  0  0  0  0  0  0
   -3.2980   73.0100   26.2560 N   0  0  0  0  0  0  0  0  0  0  0  0
   -3.4460   71.7750   25.6390 C   0  0  0  0  0  0  0  0  0  0  0  0
   -2.6570   70.8550   25.6950 O   0  0  0  0  0  0  0  0  0  0  0  0
   -2.2380   67.8560   22.0780 C   0  0  0  0  0  0  0  0  0  0  0  0
   -9.0365   62.3190   24.7336 H   0  0  0  0  0  0  0  0  0  0  0  0
  -10.0528   62.3535   23.2528 H   0  0  0  0  0  0  0  0  0  0  0  0
   -8.4957   61.4579   23.2528 H   0  0  0  0  0  0  0  0  0  0  0  0
   -8.2533   63.5893   22.0680 H   0  0  0  0  0  0  0  0  0  0  0  0
   -8.8657   64.4617   23.5548 H   0  0  0  0  0  0  0  0  0  0  0  0
   -7.6265   62.5670   25.2956 H   0  0  0  0  0  0  0  0  0  0  0  0
   -5.8341   62.5943   25.0760 H   0  0  0  0  0  0  0  0  0  0  0  0
   -6.6850   63.9059   27.0774 H   0  0  0  0  0  0  0  0  0  0  0  0
   -5.6873   64.8477   25.9180 H   0  0  0  0  0  0  0  0  0  0  0  0
   -7.4745   65.0280   25.9180 H   0  0  0  0  0  0  0  0  0  0  0  0
   -5.7404   62.1197   23.0584 H   0  0  0  0  0  0  0  0  0  0  0  0
   -6.4271   63.2373   21.7477 H   0  0  0  0  0  0  0  0  0  0  0  0
   -3.9144   63.5122   23.3742 H   0  0  0  0  0  0  0  0  0  0  0  0
   -4.2046   63.6674   21.5872 H   0  0  0  0  0  0  0  0  0  0  0  0
   -5.2655   65.8409   22.0191 H   0  0  0  0  0  0  0  0  0  0  0  0
   -3.3158   70.3466   22.6056 H   0  0  0  0  0  0  0  0  0  0  0  0
   -5.8709   68.1378   26.3365 H   0  0  0  0  0  0  0  0  0  0  0  0
   -7.1140   68.6758   25.1567 H   0  0  0  0  0  0  0  0  0  0  0  0
   -6.5550   66.9687   25.1567 H   0  0  0  0  0  0  0  0  0  0  0  0
   -6.3320   71.1991   23.6812 H   0  0  0  0  0  0  0  0  0  0  0  0
   -3.7927   75.6295   27.0856 H   0  0  0  0  0  0  0  0  0  0  0  0
   -5.8860   76.8413   26.3857 H   0  0  0  0  0  0  0  0  0  0  0  0
   -7.2075   73.3664   24.1394 H   0  0  0  0  0  0  0  0  0  0  0  0
   -2.4909   73.2714   26.8401 H   0  0  0  0  0  0  0  0  0  0  0  0
   -1.3892   67.5755   22.7191 H   0  0  0  0  0  0  0  0  0  0  0  0
   -2.5158   67.0019   21.4429 H   0  0  0  0  0  0  0  0  0  0  0  0
   -1.9522   68.7075   21.4429 H   0  0  0  0  0  0  0  0  0  0  0  0
  1  2  1  0
  2  3  1  0
  3  4  1  0
  4  5  1  0
  3  6  1  0
  6  7  1  0
  7  8  1  0
  8  9  1  0
  9 10  2  0
  9 11  1  0
 11 12  2  0
 12 13  1  0
 13 14  1  0
 14 15  2  0
 15 16  1  0
 14 17  1  0
 17 18  2  0
 18 19  1  0
 19 20  1  0
 20 21  2  0
 21 22  1  0
 22 23  2  0
 23 24  1  0
 23 25  1  0
 20 26  1  0
 26 27  1  0
 27 28  2  0
 12 29  1  0
 15 11  1  0
 27 18  1  0
 24 19  2  0
  1 30  1  0
  1 31  1  0
  1 32  1  0
  2 33  1  0
  2 34  1  0
  4 35  1  0
  4 36  1  0
  5 37  1  0
  5 38  1  0
  5 39  1  0
  6 40  1  0
  6 41  1  0
  7 42  1  0
  7 43  1  0
  8 44  1  0
 13 45  1  0
 16 46  1  0
 16 47  1  0
 16 48  1  0
 17 49  1  0
 21 50  1  0
 22 51  1  0
 24 52  1  0
 26 53  1  0
 29 54  1  0
 29 55  1  0
 29 56  1  0
M  END
