
     RDKit          3D

 54 57  0  0  0  0  0  0  0  0999 V2000
 -123.9070   63.5840   28.8430 C   0  0  0  0  0  0  0  0  0  0  0  0
 -123.9110   62.4310   29.7390 N   0  0  0  0  0  0  0  0  0  0  0  0
 -124.2410   62.8030   31.1200 C   0  0  0  0  0  0  0  0  0  0  0  0
 -125.6690   62.4470   31.5290 C   0  0  0  0  0  0  0  0  0  0  0  0
 -125.9470   60.9420   31.3800 C   0  0  0  0  0  0  0  0  0  0  0  0
 -125.1000   60.3180   30.2560 C   0  0  0  0  0  0  0  0  0  0  0  0
 -124.7490   61.3530   29.1920 C   0  0  0  0  0  0  0  0  0  0  0  0
 -125.7360   60.1930   32.7060 C   0  0  0  0  0  0  0  0  0  0  0  0
 -126.8840   60.3950   33.5300 O   0  0  0  0  0  0  0  0  0  0  0  0
 -126.9370   61.5310   34.2970 C   0  0  0  0  0  0  0  0  0  0  0  0
 -128.1420   62.2490   34.2540 C   0  0  0  0  0  0  0  0  0  0  0  0
 -128.2650   63.4130   35.0140 C   0  0  0  0  0  0  0  0  0  0  0  0
 -127.1940   63.8780   35.8220 C   0  0  0  0  0  0  0  0  0  0  0  0
 -125.9900   63.1640   35.8400 C   0  0  0  0  0  0  0  0  0  0  0  0
 -125.8820   62.0050   35.0830 C   0  0  0  0  0  0  0  0  0  0  0  0
 -124.9320   63.5530   36.5570 N   0  0  0  0  0  0  0  0  0  0  0  0
 -125.0660   64.6770   37.2680 C   0  0  0  0  0  0  0  0  0  0  0  0
 -126.1590   65.4400   37.3370 N   0  0  0  0  0  0  0  0  0  0  0  0
 -127.2270   65.0350   36.6270 C   0  0  0  0  0  0  0  0  0  0  0  0
 -128.4280   65.7900   36.6940 N   0  0  0  0  0  0  0  0  0  0  0  0
 -128.6240   67.0750   37.2530 C   0  0  0  0  0  0  0  0  0  0  0  0
 -128.8240   68.1690   36.3950 C   0  0  0  0  0  0  0  0  0  0  0  0
 -128.9630   69.4700   36.8710 C   0  0  0  0  0  0  0  0  0  0  0  0
 -128.8800   69.6960   38.2400 C   0  0  0  0  0  0  0  0  0  0  0  0
 -128.6520   68.6380   39.1180 C   0  0  0  0  0  0  0  0  0  0  0  0
 -128.5140   67.3350   38.6230 C   0  0  0  0  0  0  0  0  0  0  0  0
 -129.0640   71.4530   38.9140 Br  0  0  0  0  0  0  0  0  0  0  0  0
 -128.8920   67.9550   35.0720 F   0  0  0  0  0  0  0  0  0  0  0  0
 -129.1270   61.7320   33.4530 O   0  0  0  0  0  0  0  0  0  0  0  0
 -130.4160   61.5420   34.0220 C   0  0  0  0  0  0  0  0  0  0  0  0
 -123.9038   64.5099   29.4369 H   0  0  0  0  0  0  0  0  0  0  0  0
 -123.0090   63.5522   28.2086 H   0  0  0  0  0  0  0  0  0  0  0  0
 -124.8052   63.5585   28.2086 H   0  0  0  0  0  0  0  0  0  0  0  0
 -123.5465   62.2816   31.7952 H   0  0  0  0  0  0  0  0  0  0  0  0
 -124.1514   63.8973   31.1876 H   0  0  0  0  0  0  0  0  0  0  0  0
 -125.8207   62.7348   32.5798 H   0  0  0  0  0  0  0  0  0  0  0  0
 -126.3598   62.9896   30.8669 H   0  0  0  0  0  0  0  0  0  0  0  0
 -127.0057   60.8368   31.1004 H   0  0  0  0  0  0  0  0  0  0  0  0
 -124.1708   59.9170   30.6871 H   0  0  0  0  0  0  0  0  0  0  0  0
 -125.6851   59.5158   29.7827 H   0  0  0  0  0  0  0  0  0  0  0  0
 -124.2031   60.8555   28.3768 H   0  0  0  0  0  0  0  0  0  0  0  0
 -125.6851   61.7986   28.8243 H   0  0  0  0  0  0  0  0  0  0  0  0
 -125.6059   59.1187   32.5083 H   0  0  0  0  0  0  0  0  0  0  0  0
 -124.8371   60.5729   33.2136 H   0  0  0  0  0  0  0  0  0  0  0  0
 -129.2074   63.9797   34.9866 H   0  0  0  0  0  0  0  0  0  0  0  0
 -124.9371   61.4421   35.1022 H   0  0  0  0  0  0  0  0  0  0  0  0
 -124.1928   65.0041   37.8515 H   0  0  0  0  0  0  0  0  0  0  0  0
 -129.2619   65.3460   36.2837 H   0  0  0  0  0  0  0  0  0  0  0  0
 -129.1355   70.3047   36.1756 H   0  0  0  0  0  0  0  0  0  0  0  0
 -128.5804   68.8262   40.1994 H   0  0  0  0  0  0  0  0  0  0  0  0
 -128.3169   66.5068   39.3195 H   0  0  0  0  0  0  0  0  0  0  0  0
 -130.3378   61.5535   35.1192 H   0  0  0  0  0  0  0  0  0  0  0  0
 -131.0847   62.3513   33.6935 H   0  0  0  0  0  0  0  0  0  0  0  0
 -130.8228   60.5742   33.6935 H   0  0  0  0  0  0  0  0  0  0  0  0
  1  2  1  0
  2  3  1  0
  3  4  1  0
  4  5  1  0
  5  6  1  0
  6  7  1  0
  5  8  1  0
  8  9  1  0
  9 10  1  0
 10 11  2  0
 11 12  1  0
 12 13  2  0
 13 14  1  0
 14 15  2  0
 14 16  1  0
 16 17  2  0
 17 18  1  0
 18 19  2  0
 19 20  1  0
 20 21  1  0
 21 22  2  0
 22 23  1  0
 23 24  2  0
 24 25  1  0
 25 26  2  0
 24 27  1  0
 22 28  1  0
 11 29  1  0
 29 30  1  0
  7  2  1  0
 15 10  1  0
 19 13  1  0
 26 21  1  0
  1 31  1  0
  1 32  1  0
  1 33  1  0
  3 34  1  0
  3 35  1  0
  4 36  1  0
  4 37  1  0
  5 38  1  0
  6 39  1  0
  6 40  1  0
  7 41  1  0
  7 42  1  0
  8 43  1  0
  8 44  1  0
 12 45  1  0
 15 46  1  0
 17 47  1  0
 20 48  1  0
 23 49  1  0
 25 50  1  0
 26 51  1  0
 30 52  1  0
 30 53  1  0
 30 54  1  0
M  END
