
     RDKit          3D

 31 32  0  0  0  0  0  0  0  0999 V2000
 -127.1250   56.3270   40.0140 C   0  0  0  0  0  0  0  0  0  0  0  0
 -127.4360   54.9200   40.4030 C   0  0  0  0  0  0  0  0  0  0  0  0
 -126.5230   53.9470   40.5130 C   0  0  0  0  0  0  0  0  0  0  0  0
 -126.8560   52.6570   40.8790 N   0  0  0  0  0  0  0  0  0  0  0  0
 -128.1690   52.2870   41.1240 C   0  0  0  0  0  0  0  0  0  0  0  0
 -128.5070   51.1410   41.4130 O   0  0  0  0  0  0  0  0  0  0  0  0
 -129.0990   53.2850   41.0250 N   0  0  0  0  0  0  0  0  0  0  0  0
 -128.8510   54.5820   40.6810 C   0  0  0  0  0  0  0  0  0  0  0  0
 -129.7470   55.4160   40.6010 O   0  0  0  0  0  0  0  0  0  0  0  0
 -125.8640   51.5910   40.9430 C   0  0  1  0  0  0  0  0  0  0  0  0
 -125.5390   50.9400   39.5910 C   0  0  2  0  0  0  0  0  0  0  0  0
 -124.0760   50.5870   39.7540 C   0  0  1  0  0  0  0  0  0  0  0  0
 -123.5770   51.7950   40.5400 C   0  0  1  0  0  0  0  0  0  0  0  0
 -124.6170   52.0520   41.5160 O   0  0  0  0  0  0  0  0  0  0  0  0
 -122.2350   51.5850   41.2360 C   0  0  0  0  0  0  0  0  0  0  0  0
 -122.4520   51.0240   42.5320 O   0  0  0  0  0  0  0  0  0  0  0  0
 -123.9100   49.3590   40.4680 O   0  0  0  0  0  0  0  0  0  0  0  0
 -125.6470   51.8520   38.5820 F   0  0  0  0  0  0  0  0  0  0  0  0
 -126.9903   56.9366   40.9197 H   0  0  0  0  0  0  0  0  0  0  0  0
 -126.2008   56.3468   39.4178 H   0  0  0  0  0  0  0  0  0  0  0  0
 -127.9547   56.7345   39.4178 H   0  0  0  0  0  0  0  0  0  0  0  0
 -125.4691   54.1832   40.3043 H   0  0  0  0  0  0  0  0  0  0  0  0
 -130.0770   53.0344   41.2290 H   0  0  0  0  0  0  0  0  0  0  0  0
 -126.3392   50.8332   41.5832 H   0  0  0  0  0  0  0  0  0  0  0  0
 -126.2020   50.0968   39.3469 H   0  0  0  0  0  0  0  0  0  0  0  0
 -123.5332   50.4141   38.8130 H   0  0  0  0  0  0  0  0  0  0  0  0
 -123.3922   52.6350   39.8543 H   0  0  0  0  0  0  0  0  0  0  0  0
 -121.6158   50.8994   40.6389 H   0  0  0  0  0  0  0  0  0  0  0  0
 -121.7197   52.5516   41.3370 H   0  0  0  0  0  0  0  0  0  0  0  0
 -122.1967   51.6841   43.2243 H   0  0  0  0  0  0  0  0  0  0  0  0
 -123.9341   49.5374   41.4415 H   0  0  0  0  0  0  0  0  0  0  0  0
  1  2  1  0
  2  3  2  0
  3  4  1  0
  4  5  1  0
  5  6  2  0
  5  7  1  0
  7  8  1  0
  8  9  2  0
  4 10  1  0
 10 11  1  0
 11 12  1  0
 12 13  1  0
 13 14  1  0
 13 15  1  0
 15 16  1  0
 12 17  1  0
 11 18  1  0
  8  2  1  0
 14 10  1  0
  1 19  1  0
  1 20  1  0
  1 21  1  0
  3 22  1  0
  7 23  1  0
 10 24  1  6
 11 25  1  1
 12 26  1  1
 13 27  1  6
 15 28  1  0
 15 29  1  0
 16 30  1  0
 17 31  1  0
M  END
