
     RDKit          3D

 47 50  0  0  0  0  0  0  0  0999 V2000
    0.7530   -4.7860   11.0240 C   0  0  0  0  0  0  0  0  0  0  0  0
   -0.0850   -4.4700   12.2630 C   0  0  0  0  0  0  0  0  0  0  0  0
   -1.5540   -4.8290   12.0650 C   0  0  0  0  0  0  0  0  0  0  0  0
   -2.1960   -4.0840   10.8760 C   0  0  0  0  0  0  0  0  0  0  0  0
   -1.1420   -3.5820    9.8670 C   0  0  0  0  0  0  0  0  0  0  0  0
   -0.0050   -4.5840    9.7120 C   0  0  0  0  0  0  0  0  0  0  0  0
   -3.0920   -2.9370   11.3630 C   0  0  0  0  0  0  0  0  0  0  0  0
   -2.6910   -1.7710   11.3500 O   0  0  0  0  0  0  0  0  0  0  0  0
   -4.3570   -3.2480   11.8500 N   0  0  0  0  0  0  0  0  0  0  0  0
   -5.0680   -4.5060   11.6160 C   0  0  0  0  0  0  0  0  0  0  0  0
   -5.9730   -4.8640   12.8130 C   0  0  0  0  0  0  0  0  0  0  0  0
   -6.7050   -6.2020   12.6820 C   0  0  0  0  0  0  0  0  0  0  0  0
   -6.3150   -7.2210   11.7990 C   0  0  0  0  0  0  0  0  0  0  0  0
   -6.9840   -8.4490   11.7790 C   0  0  0  0  0  0  0  0  0  0  0  0
   -8.0450   -8.6850   12.6500 C   0  0  0  0  0  0  0  0  0  0  0  0
   -8.4440   -7.6930   13.5380 C   0  0  0  0  0  0  0  0  0  0  0  0
   -7.7880   -6.4570   13.5510 C   0  0  0  0  0  0  0  0  0  0  0  0
   -8.2100   -5.3720   14.5030 C   0  0  0  0  0  0  0  0  0  0  0  0
   -8.1680   -4.0280   13.7830 C   0  0  0  0  0  0  0  0  0  0  0  0
   -6.8850   -3.7470   13.1380 N   0  0  0  0  0  0  0  0  0  0  0  0
   -6.5310   -2.4190   12.9400 C   0  0  0  0  0  0  0  0  0  0  0  0
   -7.2670   -1.4900   13.2790 O   0  0  0  0  0  0  0  0  0  0  0  0
   -5.2010   -2.1200   12.2340 C   0  0  0  0  0  0  0  0  0  0  0  0
    1.6348   -4.1284   11.0222 H   0  0  0  0  0  0  0  0  0  0  0  0
    1.0282   -5.8495   11.0801 H   0  0  0  0  0  0  0  0  0  0  0  0
    0.3094   -5.0440   13.1145 H   0  0  0  0  0  0  0  0  0  0  0  0
   -0.0215   -3.3878   12.4496 H   0  0  0  0  0  0  0  0  0  0  0  0
   -1.6301   -5.9114   11.8841 H   0  0  0  0  0  0  0  0  0  0  0  0
   -2.0941   -4.5287   12.9750 H   0  0  0  0  0  0  0  0  0  0  0  0
   -2.8291   -4.8086   10.3429 H   0  0  0  0  0  0  0  0  0  0  0  0
   -1.6239   -3.4325    8.8896 H   0  0  0  0  0  0  0  0  0  0  0  0
   -0.7236   -2.6365   10.2425 H   0  0  0  0  0  0  0  0  0  0  0  0
   -0.4220   -5.5493    9.3889 H   0  0  0  0  0  0  0  0  0  0  0  0
    0.7003   -4.1898    8.9656 H   0  0  0  0  0  0  0  0  0  0  0  0
   -5.6891   -4.4051   10.7137 H   0  0  0  0  0  0  0  0  0  0  0  0
   -4.3260   -5.3077   11.4872 H   0  0  0  0  0  0  0  0  0  0  0  0
   -5.2962   -5.0152   13.6669 H   0  0  0  0  0  0  0  0  0  0  0  0
   -5.4717   -7.0514   11.1134 H   0  0  0  0  0  0  0  0  0  0  0  0
   -6.6709   -9.2318   11.0724 H   0  0  0  0  0  0  0  0  0  0  0  0
   -8.5657   -9.6538   12.6351 H   0  0  0  0  0  0  0  0  0  0  0  0
   -9.2769   -7.8798   14.2318 H   0  0  0  0  0  0  0  0  0  0  0  0
   -9.2334   -5.5690   14.8548 H   0  0  0  0  0  0  0  0  0  0  0  0
   -7.5269   -5.3507   15.3650 H   0  0  0  0  0  0  0  0  0  0  0  0
   -8.9530   -4.0220   13.0124 H   0  0  0  0  0  0  0  0  0  0  0  0
   -8.3225   -3.2498   14.5449 H   0  0  0  0  0  0  0  0  0  0  0  0
   -5.4368   -1.5613   11.3163 H   0  0  0  0  0  0  0  0  0  0  0  0
   -4.6081   -1.5783   12.9857 H   0  0  0  0  0  0  0  0  0  0  0  0
  1  2  1  0
  2  3  1  0
  3  4  1  0
  4  5  1  0
  5  6  1  0
  4  7  1  0
  7  8  2  0
  7  9  1  0
  9 10  1  0
 10 11  1  0
 11 12  1  0
 12 13  2  0
 13 14  1  0
 14 15  2  0
 15 16  1  0
 16 17  2  0
 17 18  1  0
 18 19  1  0
 19 20  1  0
 20 21  1  0
 21 22  2  0
 21 23  1  0
  6  1  1  0
 23  9  1  0
 20 11  1  0
 17 12  1  0
  1 24  1  0
  1 25  1  0
  2 26  1  0
  2 27  1  0
  3 28  1  0
  3 29  1  0
  4 30  1  0
  5 31  1  0
  5 32  1  0
  6 33  1  0
  6 34  1  0
 10 35  1  0
 10 36  1  0
 11 37  1  0
 13 38  1  0
 14 39  1  0
 15 40  1  0
 16 41  1  0
 18 42  1  0
 18 43  1  0
 19 44  1  0
 19 45  1  0
 23 46  1  0
 23 47  1  0
M  END
