
     RDKit          3D

 60 63  0  0  0  0  0  0  0  0999 V2000
  -10.0610    1.0810   10.4130 C   0  0  0  0  0  0  0  0  0  0  0  0
   -8.7620    0.3990   10.2530 N   0  0  0  0  0  0  0  0  0  0  0  0
   -7.9960    1.1600    9.2450 C   0  0  0  0  0  0  0  0  0  0  0  0
   -8.0130    0.3090   11.5470 C   0  0  2  0  0  0  0  0  0  0  0  0
   -6.8830   -0.7530   11.5000 C   0  0  1  0  0  0  0  0  0  0  0  0
   -5.9610   -0.6690   12.7370 C   0  0  0  0  0  0  0  0  0  0  0  0
   -4.8170   -1.6940   12.6940 C   0  0  2  0  0  0  0  0  0  0  0  0
   -3.5710   -1.1560   11.9810 C   0  0  0  0  0  0  0  0  0  0  0  0
   -2.4260   -2.1480   12.0360 C   0  0  0  0  0  0  0  0  0  0  0  0
   -1.0760   -1.7340   12.0170 C   0  0  0  0  0  0  0  0  0  0  0  0
   -0.0710   -2.7120   12.1360 C   0  0  0  0  0  0  0  0  0  0  0  0
   -0.3670   -4.0700   12.2250 C   0  0  0  0  0  0  0  0  0  0  0  0
   -1.6890   -4.4820   12.1900 C   0  0  0  0  0  0  0  0  0  0  0  0
   -2.7210   -3.5380   12.0970 C   0  0  0  0  0  0  0  0  0  0  0  0
   -4.1300   -4.0170   12.0300 C   0  0  0  0  0  0  0  0  0  0  0  0
   -5.2080   -2.9900   12.0530 C   0  0  0  0  0  0  0  0  0  0  0  0
   -6.4020   -3.2360   11.4790 C   0  0  0  0  0  0  0  0  0  0  0  0
   -6.7060   -4.4660   10.9060 O   0  0  0  0  0  0  0  0  0  0  0  0
   -7.4870   -2.1670   11.3320 C   0  0  1  0  0  0  0  0  0  0  0  0
   -8.6200   -2.4470   12.3620 C   0  0  0  0  0  0  0  0  0  0  0  0
   -9.2370   -1.2930   13.0940 C   0  0  0  0  0  0  0  0  0  0  0  0
   -8.9390   -0.0310   12.7100 C   0  0  0  0  0  0  0  0  0  0  0  0
   -9.4150    1.1030   13.3630 O   0  0  0  0  0  0  0  0  0  0  0  0
  -10.1690   -1.4880   14.2470 C   0  0  0  0  0  0  0  0  0  0  0  0
   -9.8040   -1.3210   15.4090 O   0  0  0  0  0  0  0  0  0  0  0  0
  -11.4400   -1.8660   13.9680 N   0  0  0  0  0  0  0  0  0  0  0  0
   -9.0440   -3.5840   12.5980 O   0  0  0  0  0  0  0  0  0  0  0  0
   -8.0120   -2.2710   10.0020 O   0  0  0  0  0  0  0  0  0  0  0  0
   -4.3890   -5.2150   11.9370 O   0  0  0  0  0  0  0  0  0  0  0  0
   -1.8990   -5.8330   12.2510 O   0  0  0  0  0  0  0  0  0  0  0  0
   -0.6320   -0.4140   11.8920 N   0  0  0  0  0  0  0  0  0  0  0  0
   -0.8750    0.4200   13.0660 C   0  0  0  0  0  0  0  0  0  0  0  0
   -0.7380    0.2320   10.5910 C   0  0  0  0  0  0  0  0  0  0  0  0
  -10.2842    1.1982   11.4837 H   0  0  0  0  0  0  0  0  0  0  0  0
  -10.0160    2.0718    9.9373 H   0  0  0  0  0  0  0  0  0  0  0  0
  -10.8510    0.4814    9.9373 H   0  0  0  0  0  0  0  0  0  0  0  0
   -7.3038    1.8477    9.7529 H   0  0  0  0  0  0  0  0  0  0  0  0
   -7.4239    0.4623    8.6157 H   0  0  0  0  0  0  0  0  0  0  0  0
   -8.6899    1.7367    8.6157 H   0  0  0  0  0  0  0  0  0  0  0  0
   -7.5684    1.3032   11.7014 H   0  0  0  0  0  0  0  0  0  0  0  0
   -6.2507   -0.5407   10.6253 H   0  0  0  0  0  0  0  0  0  0  0  0
   -5.5273    0.3408   12.7848 H   0  0  0  0  0  0  0  0  0  0  0  0
   -6.5731   -0.8910   13.6236 H   0  0  0  0  0  0  0  0  0  0  0  0
   -4.5812   -1.8808   13.7521 H   0  0  0  0  0  0  0  0  0  0  0  0
   -3.8202   -0.9561   10.9284 H   0  0  0  0  0  0  0  0  0  0  0  0
   -3.2533   -0.2345   12.4907 H   0  0  0  0  0  0  0  0  0  0  0  0
    0.9817   -2.3937   12.1595 H   0  0  0  0  0  0  0  0  0  0  0  0
    0.4420   -4.8089   12.3222 H   0  0  0  0  0  0  0  0  0  0  0  0
  -12.1139   -2.0111   14.7333 H   0  0  0  0  0  0  0  0  0  0  0  0
  -11.7322   -2.0082   12.9906 H   0  0  0  0  0  0  0  0  0  0  0  0
   -9.7667   -3.7149   13.2619 H   0  0  0  0  0  0  0  0  0  0  0  0
   -8.9822   -2.4632   10.0443 H   0  0  0  0  0  0  0  0  0  0  0  0
   -5.3312   -5.5158   11.8936 H   0  0  0  0  0  0  0  0  0  0  0  0
   -2.8214   -6.1920   12.2303 H   0  0  0  0  0  0  0  0  0  0  0  0
   -0.7028   -0.1710   13.9776 H   0  0  0  0  0  0  0  0  0  0  0  0
   -0.1903    1.2808   13.0523 H   0  0  0  0  0  0  0  0  0  0  0  0
   -1.9149    0.7783   13.0523 H   0  0  0  0  0  0  0  0  0  0  0  0
   -0.9147    1.3088   10.7296 H   0  0  0  0  0  0  0  0  0  0  0  0
    0.1966    0.0830   10.0304 H   0  0  0  0  0  0  0  0  0  0  0  0
   -1.5760   -0.2079   10.0304 H   0  0  0  0  0  0  0  0  0  0  0  0
  1  2  1  0
  2  3  1  0
  2  4  1  0
  4  5  1  0
  5  6  1  0
  6  7  1  0
  7  8  1  0
  8  9  1  0
  9 10  2  0
 10 11  1  0
 11 12  2  0
 12 13  1  0
 13 14  2  0
 14 15  1  0
 15 16  2  0
 16 17  1  0
 17 18  2  0
 17 19  1  0
 19 20  1  0
 20 21  2  0
 21 22  1  0
 22 23  2  0
 21 24  1  0
 24 25  2  0
 24 26  1  0
 20 27  1  0
 19 28  1  1
 15 29  1  0
 13 30  1  0
 10 31  1  0
 31 32  1  0
 31 33  1  0
 22  4  1  0
 19  5  1  0
 16  7  1  0
 14  9  1  0
  1 34  1  0
  1 35  1  0
  1 36  1  0
  3 37  1  0
  3 38  1  0
  3 39  1  0
  4 40  1  6
  5 41  1  1
  6 42  1  0
  6 43  1  0
  7 44  1  1
  8 45  1  0
  8 46  1  0
 11 47  1  0
 12 48  1  0
 26 49  1  0
 26 50  1  0
 27 51  1  0
 28 52  1  0
 29 53  1  0
 30 54  1  0
 32 55  1  0
 32 56  1  0
 32 57  1  0
 33 58  1  0
 33 59  1  0
 33 60  1  0
M  END
