
     RDKit          3D

 46 47  0  0  0  0  0  0  0  0999 V2000
   -4.8080    5.7830   17.0620 C   0  0  0  0  0  0  0  0  0  0  0  0
   -4.6340    4.2710   16.9890 C   0  0  0  0  0  0  0  0  0  0  0  0
   -5.5580    3.6710   15.9360 C   0  0  0  0  0  0  0  0  0  0  0  0
   -3.2640    4.0210   16.6250 O   0  0  0  0  0  0  0  0  0  0  0  0
   -2.5210    3.2920   17.5160 C   0  0  0  0  0  0  0  0  0  0  0  0
   -2.5800    3.4420   18.7310 O   0  0  0  0  0  0  0  0  0  0  0  0
   -1.6150    2.2750   16.7720 C   0  0  0  0  0  0  0  0  0  0  0  0
   -0.1730    2.7760   16.9140 C   0  0  0  0  0  0  0  0  0  0  0  0
   -1.8720    0.9030   17.4070 C   0  0  0  0  0  0  0  0  0  0  0  0
   -2.0800    2.3340   15.4140 O   0  0  0  0  0  0  0  0  0  0  0  0
   -1.7290    1.4890   14.4120 C   0  0  0  0  0  0  0  0  0  0  0  0
   -0.6830    1.6270   13.5040 C   0  0  0  0  0  0  0  0  0  0  0  0
   -0.4550    0.6480   12.5250 C   0  0  0  0  0  0  0  0  0  0  0  0
   -1.2720   -0.4860   12.4590 C   0  0  0  0  0  0  0  0  0  0  0  0
   -2.3350   -0.6190   13.3500 C   0  0  0  0  0  0  0  0  0  0  0  0
   -2.5520    0.3600   14.3230 C   0  0  0  0  0  0  0  0  0  0  0  0
   -1.0690   -1.5350   11.4290 C   0  0  0  0  0  0  0  0  0  0  0  0
   -0.9800   -1.2100   10.2480 O   0  0  0  0  0  0  0  0  0  0  0  0
   -0.9690   -2.9710   11.7920 C   0  0  0  0  0  0  0  0  0  0  0  0
   -2.1050   -3.7860   11.8950 C   0  0  0  0  0  0  0  0  0  0  0  0
   -1.9660   -5.1370   12.2240 C   0  0  0  0  0  0  0  0  0  0  0  0
   -0.6960   -5.6740   12.4370 C   0  0  0  0  0  0  0  0  0  0  0  0
    0.4380   -4.8740   12.3170 C   0  0  0  0  0  0  0  0  0  0  0  0
    0.3030   -3.5230   11.9890 C   0  0  0  0  0  0  0  0  0  0  0  0
   -0.5320   -7.3380   12.8440 Cl  0  0  0  0  0  0  0  0  0  0  0  0
   -4.8442    6.0975   18.1155 H   0  0  0  0  0  0  0  0  0  0  0  0
   -3.9605    6.2742   16.5616 H   0  0  0  0  0  0  0  0  0  0  0  0
   -5.7450    6.0688   16.5616 H   0  0  0  0  0  0  0  0  0  0  0  0
   -4.8839    3.8119   17.9569 H   0  0  0  0  0  0  0  0  0  0  0  0
   -6.3813    3.1364   16.4324 H   0  0  0  0  0  0  0  0  0  0  0  0
   -5.9690    4.4750   15.3078 H   0  0  0  0  0  0  0  0  0  0  0  0
   -4.9907    2.9685   15.3078 H   0  0  0  0  0  0  0  0  0  0  0  0
    0.0811    2.8643   17.9806 H   0  0  0  0  0  0  0  0  0  0  0  0
    0.5120    2.0632   16.4316 H   0  0  0  0  0  0  0  0  0  0  0  0
   -0.0775    3.7600   16.4316 H   0  0  0  0  0  0  0  0  0  0  0  0
   -1.8544    0.9971   18.5028 H   0  0  0  0  0  0  0  0  0  0  0  0
   -2.8558    0.5293   17.0868 H   0  0  0  0  0  0  0  0  0  0  0  0
   -1.0902    0.1985   17.0868 H   0  0  0  0  0  0  0  0  0  0  0  0
   -0.0299    2.5107   13.5544 H   0  0  0  0  0  0  0  0  0  0  0  0
    0.3689    0.7725   11.8069 H   0  0  0  0  0  0  0  0  0  0  0  0
   -3.0013   -1.4920   13.2876 H   0  0  0  0  0  0  0  0  0  0  0  0
   -3.3846    0.2415   15.0320 H   0  0  0  0  0  0  0  0  0  0  0  0
   -3.1045   -3.3626   11.7171 H   0  0  0  0  0  0  0  0  0  0  0  0
   -2.8566   -5.7762   12.3149 H   0  0  0  0  0  0  0  0  0  0  0  0
    1.4369   -5.3049   12.4801 H   0  0  0  0  0  0  0  0  0  0  0  0
    1.1975   -2.8913   11.8852 H   0  0  0  0  0  0  0  0  0  0  0  0
  1  2  1  0
  2  3  1  0
  2  4  1  0
  4  5  1  0
  5  6  2  0
  5  7  1  0
  7  8  1  0
  7  9  1  0
  7 10  1  0
 10 11  1  0
 11 12  2  0
 12 13  1  0
 13 14  2  0
 14 15  1  0
 15 16  2  0
 14 17  1  0
 17 18  2  0
 17 19  1  0
 19 20  2  0
 20 21  1  0
 21 22  2  0
 22 23  1  0
 23 24  2  0
 22 25  1  0
 16 11  1  0
 24 19  1  0
  1 26  1  0
  1 27  1  0
  1 28  1  0
  2 29  1  0
  3 30  1  0
  3 31  1  0
  3 32  1  0
  8 33  1  0
  8 34  1  0
  8 35  1  0
  9 36  1  0
  9 37  1  0
  9 38  1  0
 12 39  1  0
 13 40  1  0
 15 41  1  0
 16 42  1  0
 20 43  1  0
 21 44  1  0
 23 45  1  0
 24 46  1  0
M  END
