
     RDKit          3D

 48 49  0  0  0  0  0  0  0  0999 V2000
 -112.2870   56.5800   28.6700 C   0  0  0  0  0  0  0  0  0  0  0  0
 -112.7230   57.9040   29.2890 C   0  0  0  0  0  0  0  0  0  0  0  0
 -113.7780   58.6010   28.5300 N   0  0  0  0  0  0  0  0  0  0  0  0
 -114.9670   58.9350   29.3330 C   0  0  0  0  0  0  0  0  0  0  0  0
 -114.9270   58.5410   30.8060 C   0  0  0  0  0  0  0  0  0  0  0  0
 -113.2000   59.7530   27.8160 C   0  0  0  0  0  0  0  0  0  0  0  0
 -111.9960   60.4120   28.5080 C   0  0  0  0  0  0  0  0  0  0  0  0
 -112.3690   61.7170   29.2280 C   0  0  0  0  0  0  0  0  0  0  0  0
 -112.6140   61.5780   30.7460 C   0  0  0  0  0  0  0  0  0  0  0  0
 -111.6270   60.6010   31.3880 C   0  0  0  0  0  0  0  0  0  0  0  0
 -112.5070   62.8970   31.3840 N   0  0  0  0  0  0  0  0  0  0  0  0
 -113.6140   63.7320   31.6200 C   0  0  0  0  0  0  0  0  0  0  0  0
 -113.5840   65.0840   31.1650 C   0  0  0  0  0  0  0  0  0  0  0  0
 -112.4850   65.6590   30.4800 C   0  0  0  0  0  0  0  0  0  0  0  0
 -112.5130   66.9830   30.0430 C   0  0  0  0  0  0  0  0  0  0  0  0
 -113.6380   67.7540   30.2920 C   0  0  0  0  0  0  0  0  0  0  0  0
 -114.7220   67.2140   30.9780 C   0  0  0  0  0  0  0  0  0  0  0  0
 -114.7120   65.9010   31.4230 C   0  0  0  0  0  0  0  0  0  0  0  0
 -115.7860   65.4670   32.0950 N   0  0  0  0  0  0  0  0  0  0  0  0
 -115.7690   64.2040   32.5570 C   0  0  0  0  0  0  0  0  0  0  0  0
 -114.7230   63.3210   32.3580 C   0  0  0  0  0  0  0  0  0  0  0  0
 -113.6890   69.3890   29.7580 Cl  0  0  0  0  0  0  0  0  0  0  0  0
 -112.0505   55.8619   29.4690 H   0  0  0  0  0  0  0  0  0  0  0  0
 -113.1011   56.1807   28.0473 H   0  0  0  0  0  0  0  0  0  0  0  0
 -111.3949   56.7425   28.0473 H   0  0  0  0  0  0  0  0  0  0  0  0
 -113.1003   57.7045   30.3028 H   0  0  0  0  0  0  0  0  0  0  0  0
 -111.8416   58.5621   29.2877 H   0  0  0  0  0  0  0  0  0  0  0  0
 -115.1090   60.0246   29.2824 H   0  0  0  0  0  0  0  0  0  0  0  0
 -115.7873   58.3462   28.8967 H   0  0  0  0  0  0  0  0  0  0  0  0
 -115.0185   59.4427   31.4294 H   0  0  0  0  0  0  0  0  0  0  0  0
 -115.7604   57.8574   31.0255 H   0  0  0  0  0  0  0  0  0  0  0  0
 -113.9733   58.0388   31.0255 H   0  0  0  0  0  0  0  0  0  0  0  0
 -112.8762   59.4104   26.8221 H   0  0  0  0  0  0  0  0  0  0  0  0
 -113.9892   60.5184   27.7800 H   0  0  0  0  0  0  0  0  0  0  0  0
 -111.5851   59.7076   29.2462 H   0  0  0  0  0  0  0  0  0  0  0  0
 -111.2594   60.6601   27.7296 H   0  0  0  0  0  0  0  0  0  0  0  0
 -111.5492   62.4352   29.0791 H   0  0  0  0  0  0  0  0  0  0  0  0
 -113.3234   62.0467   28.7916 H   0  0  0  0  0  0  0  0  0  0  0  0
 -113.6264   61.1746   30.8954 H   0  0  0  0  0  0  0  0  0  0  0  0
 -111.6997   60.6730   32.4832 H   0  0  0  0  0  0  0  0  0  0  0  0
 -111.8677   59.5755   31.0712 H   0  0  0  0  0  0  0  0  0  0  0  0
 -110.6040   60.8521   31.0712 H   0  0  0  0  0  0  0  0  0  0  0  0
 -111.5749   63.2267   31.6729 H   0  0  0  0  0  0  0  0  0  0  0  0
 -111.5905   65.0479   30.2888 H   0  0  0  0  0  0  0  0  0  0  0  0
 -111.6527   67.4105   29.5071 H   0  0  0  0  0  0  0  0  0  0  0  0
 -115.6045   67.8417   31.1710 H   0  0  0  0  0  0  0  0  0  0  0  0
 -116.6405   63.8515   33.1282 H   0  0  0  0  0  0  0  0  0  0  0  0
 -114.7658   62.3051   32.7777 H   0  0  0  0  0  0  0  0  0  0  0  0
  1  2  1  0
  2  3  1  0
  3  4  1  0
  4  5  1  0
  3  6  1  0
  6  7  1  0
  7  8  1  0
  8  9  1  0
  9 10  1  0
  9 11  1  0
 11 12  1  0
 12 13  2  0
 13 14  1  0
 14 15  2  0
 15 16  1  0
 16 17  2  0
 17 18  1  0
 18 19  2  0
 19 20  1  0
 20 21  2  0
 16 22  1  0
 21 12  1  0
 18 13  1  0
  1 23  1  0
  1 24  1  0
  1 25  1  0
  2 26  1  0
  2 27  1  0
  4 28  1  0
  4 29  1  0
  5 30  1  0
  5 31  1  0
  5 32  1  0
  6 33  1  0
  6 34  1  0
  7 35  1  0
  7 36  1  0
  8 37  1  0
  8 38  1  0
  9 39  1  0
 10 40  1  0
 10 41  1  0
 10 42  1  0
 11 43  1  0
 14 44  1  0
 15 45  1  0
 17 46  1  0
 20 47  1  0
 21 48  1  0
M  END
