
     RDKit          3D

 47 50  0  0  0  0  0  0  0  0999 V2000
  -17.4290   70.0380   36.4870 C   0  0  0  0  0  0  0  0  0  0  0  0
  -16.8330   69.0030   35.5340 C   0  0  0  0  0  0  0  0  0  0  0  0
  -16.8600   69.4770   34.0850 C   0  0  0  0  0  0  0  0  0  0  0  0
  -18.2880   69.7890   33.5860 C   0  0  0  0  0  0  0  0  0  0  0  0
  -19.2630   70.0630   34.7500 C   0  0  0  0  0  0  0  0  0  0  0  0
  -18.5810   70.8340   35.8740 C   0  0  0  0  0  0  0  0  0  0  0  0
  -18.8090   68.6720   32.6730 C   0  0  0  0  0  0  0  0  0  0  0  0
  -18.3670   67.5240   32.7610 O   0  0  0  0  0  0  0  0  0  0  0  0
  -19.7710   68.9920   31.7210 N   0  0  0  0  0  0  0  0  0  0  0  0
  -20.6030   70.1960   31.7310 C   0  0  0  0  0  0  0  0  0  0  0  0
  -20.9440   70.6480   30.2960 C   0  0  0  0  0  0  0  0  0  0  0  0
  -21.7590   71.9410   30.2100 C   0  0  0  0  0  0  0  0  0  0  0  0
  -21.8510   72.8750   31.2540 C   0  0  0  0  0  0  0  0  0  0  0  0
  -22.5540   74.0720   31.0870 C   0  0  0  0  0  0  0  0  0  0  0  0
  -23.1640   74.3640   29.8700 C   0  0  0  0  0  0  0  0  0  0  0  0
  -23.0790   73.4580   28.8190 C   0  0  0  0  0  0  0  0  0  0  0  0
  -22.3900   72.2510   28.9870 C   0  0  0  0  0  0  0  0  0  0  0  0
  -22.2920   71.2580   27.8610 C   0  0  0  0  0  0  0  0  0  0  0  0
  -22.4600   69.8490   28.4190 C   0  0  0  0  0  0  0  0  0  0  0  0
  -21.5500   69.5430   29.5240 N   0  0  0  0  0  0  0  0  0  0  0  0
  -21.2180   68.2130   29.7460 C   0  0  0  0  0  0  0  0  0  0  0  0
  -21.6730   67.3010   29.0510 O   0  0  0  0  0  0  0  0  0  0  0  0
  -20.2900   67.8840   30.9240 C   0  0  0  0  0  0  0  0  0  0  0  0
  -17.8024   69.5156   37.3801 H   0  0  0  0  0  0  0  0  0  0  0  0
  -16.6307   70.7551   36.7286 H   0  0  0  0  0  0  0  0  0  0  0  0
  -15.7898   68.8114   35.8254 H   0  0  0  0  0  0  0  0  0  0  0  0
  -17.4404   68.0885   35.6033 H   0  0  0  0  0  0  0  0  0  0  0  0
  -16.2511   70.3893   34.0019 H   0  0  0  0  0  0  0  0  0  0  0  0
  -16.4609   68.6631   33.4619 H   0  0  0  0  0  0  0  0  0  0  0  0
  -18.2302   70.7139   32.9934 H   0  0  0  0  0  0  0  0  0  0  0  0
  -20.1122   70.6530   34.3747 H   0  0  0  0  0  0  0  0  0  0  0  0
  -19.6063   69.0975   35.1499 H   0  0  0  0  0  0  0  0  0  0  0  0
  -18.1869   71.7784   35.4706 H   0  0  0  0  0  0  0  0  0  0  0  0
  -19.3253   71.0223   36.6617 H   0  0  0  0  0  0  0  0  0  0  0  0
  -21.5368   69.9828   32.2719 H   0  0  0  0  0  0  0  0  0  0  0  0
  -20.0438   71.0027   32.2276 H   0  0  0  0  0  0  0  0  0  0  0  0
  -19.9835   70.9090   29.8277 H   0  0  0  0  0  0  0  0  0  0  0  0
  -21.3633   72.6622   32.2167 H   0  0  0  0  0  0  0  0  0  0  0  0
  -22.6254   74.7861   31.9207 H   0  0  0  0  0  0  0  0  0  0  0  0
  -23.7118   75.3091   29.7404 H   0  0  0  0  0  0  0  0  0  0  0  0
  -23.5537   73.6898   27.8542 H   0  0  0  0  0  0  0  0  0  0  0  0
  -23.0834   71.4585   27.1237 H   0  0  0  0  0  0  0  0  0  0  0  0
  -21.3100   71.3478   27.3735 H   0  0  0  0  0  0  0  0  0  0  0  0
  -23.4935   69.7387   28.7791 H   0  0  0  0  0  0  0  0  0  0  0  0
  -22.2236   69.1493   27.6038 H   0  0  0  0  0  0  0  0  0  0  0  0
  -20.8481   67.2249   31.6053 H   0  0  0  0  0  0  0  0  0  0  0  0
  -19.3981   67.4431   30.4549 H   0  0  0  0  0  0  0  0  0  0  0  0
  1  2  1  0
  2  3  1  0
  3  4  1  0
  4  5  1  0
  5  6  1  0
  4  7  1  0
  7  8  2  0
  7  9  1  0
  9 10  1  0
 10 11  1  0
 11 12  1  0
 12 13  2  0
 13 14  1  0
 14 15  2  0
 15 16  1  0
 16 17  2  0
 17 18  1  0
 18 19  1  0
 19 20  1  0
 20 21  1  0
 21 22  2  0
 21 23  1  0
  6  1  1  0
 23  9  1  0
 20 11  1  0
 17 12  1  0
  1 24  1  0
  1 25  1  0
  2 26  1  0
  2 27  1  0
  3 28  1  0
  3 29  1  0
  4 30  1  0
  5 31  1  0
  5 32  1  0
  6 33  1  0
  6 34  1  0
 10 35  1  0
 10 36  1  0
 11 37  1  0
 13 38  1  0
 14 39  1  0
 15 40  1  0
 16 41  1  0
 18 42  1  0
 18 43  1  0
 19 44  1  0
 19 45  1  0
 23 46  1  0
 23 47  1  0
M  END
