
     RDKit          3D

 65 67  0  0  0  0  0  0  0  0999 V2000
   -8.7470   -3.6660   14.0800 C   0  0  0  0  0  0  0  0  0  0  0  0
   -7.3020   -3.6200   13.5940 C   0  0  1  0  0  0  0  0  0  0  0  0
   -6.8860   -5.0390   13.1900 C   0  0  0  0  0  0  0  0  0  0  0  0
   -5.7380   -5.3700   12.9150 O   0  0  0  0  0  0  0  0  0  0  0  0
   -7.9760   -5.8550   13.1390 O   0  0  0  0  0  0  0  0  0  0  0  0
   -7.7800   -7.2050   13.6010 C   0  0  0  0  0  0  0  0  0  0  0  0
   -8.4080   -7.3010   14.9860 C   0  0  0  0  0  0  0  0  0  0  0  0
   -8.4480   -8.1760   12.6360 C   0  0  0  0  0  0  0  0  0  0  0  0
   -7.1190   -2.7340   12.4430 N   0  0  0  0  0  0  0  0  0  0  0  0
   -5.7800   -1.8360   12.2430 P   0  0  2  0  0  5  0  0  0  0  0  0
   -4.9840   -2.1540   11.0130 O   0  0  0  0  0  0  0  0  0  0  0  0
   -4.9330   -2.0030   13.6050 O   0  0  0  0  0  0  0  0  0  0  0  0
   -3.5130   -2.0060   13.5240 C   0  0  0  0  0  0  0  0  0  0  0  0
   -3.0420   -0.6510   13.0010 C   0  0  2  0  0  0  0  0  0  0  0  0
   -1.5300   -0.4710   13.1100 C   0  0  2  0  0  0  0  0  0  0  0  0
   -1.4110    1.0440   13.1620 C   0  0  1  0  0  0  0  0  0  0  0  0
   -2.6990    1.4820   13.8800 C   0  0  1  0  0  0  0  0  0  0  0  0
   -3.6480    0.4020   13.7850 O   0  0  0  0  0  0  0  0  0  0  0  0
   -2.6200    1.9260   15.2760 N   0  0  0  0  0  0  0  0  0  0  0  0
   -1.8520    1.1920   16.1640 C   0  0  0  0  0  0  0  0  0  0  0  0
   -1.7100    1.5440   17.4440 C   0  0  0  0  0  0  0  0  0  0  0  0
   -2.3850    2.7560   17.9260 C   0  0  0  0  0  0  0  0  0  0  0  0
   -2.2950    3.1090   19.0960 O   0  0  0  0  0  0  0  0  0  0  0  0
   -3.1090    3.4370   16.9930 N   0  0  0  0  0  0  0  0  0  0  0  0
   -3.2740    3.0840   15.6800 C   0  0  0  0  0  0  0  0  0  0  0  0
   -3.9840    3.7720   14.9530 O   0  0  0  0  0  0  0  0  0  0  0  0
   -0.0940    1.5700   13.6990 C   0  0  0  0  0  0  0  0  0  0  0  0
   -1.5150    1.5250   11.8720 F   0  0  0  0  0  0  0  0  0  0  0  0
   -0.8030   -1.0290   12.0170 O   0  0  0  0  0  0  0  0  0  0  0  0
   -6.2770   -0.2970   12.3170 O   0  0  0  0  0  0  0  0  0  0  0  0
   -7.5060    0.0990   11.8760 C   0  0  0  0  0  0  0  0  0  0  0  0
   -8.4000    0.6020   12.8180 C   0  0  0  0  0  0  0  0  0  0  0  0
   -9.6640    1.0290   12.4140 C   0  0  0  0  0  0  0  0  0  0  0  0
  -10.0360    0.9320   11.0730 C   0  0  0  0  0  0  0  0  0  0  0  0
   -9.1460    0.4050   10.1370 C   0  0  0  0  0  0  0  0  0  0  0  0
   -7.8790   -0.0210   10.5410 C   0  0  0  0  0  0  0  0  0  0  0  0
   -8.7641   -3.6665   15.1799 H   0  0  0  0  0  0  0  0  0  0  0  0
   -9.2881   -2.7846   13.7053 H   0  0  0  0  0  0  0  0  0  0  0  0
   -9.2309   -4.5800   13.7053 H   0  0  0  0  0  0  0  0  0  0  0  0
   -6.6837   -3.2266   14.4143 H   0  0  0  0  0  0  0  0  0  0  0  0
   -6.7115   -7.4615   13.6501 H   0  0  0  0  0  0  0  0  0  0  0  0
   -7.6273   -7.1817   15.7517 H   0  0  0  0  0  0  0  0  0  0  0  0
   -9.1608   -6.5075   15.1031 H   0  0  0  0  0  0  0  0  0  0  0  0
   -8.8893   -8.2832   15.1031 H   0  0  0  0  0  0  0  0  0  0  0  0
   -8.9812   -8.9510   13.2061 H   0  0  0  0  0  0  0  0  0  0  0  0
   -9.1626   -7.6300   12.0025 H   0  0  0  0  0  0  0  0  0  0  0  0
   -7.6827   -8.6481   12.0025 H   0  0  0  0  0  0  0  0  0  0  0  0
   -7.1916   -3.3311   11.6069 H   0  0  0  0  0  0  0  0  0  0  0  0
   -3.0870   -2.1843   14.5224 H   0  0  0  0  0  0  0  0  0  0  0  0
   -3.1813   -2.8031   12.8424 H   0  0  0  0  0  0  0  0  0  0  0  0
   -3.3334   -0.6053   11.9413 H   0  0  0  0  0  0  0  0  0  0  0  0
   -1.0969   -0.9953   13.9746 H   0  0  0  0  0  0  0  0  0  0  0  0
   -2.9914    2.4023   13.3531 H   0  0  0  0  0  0  0  0  0  0  0  0
   -1.3411    0.2875   15.8023 H   0  0  0  0  0  0  0  0  0  0  0  0
   -1.0975    0.9363   18.1263 H   0  0  0  0  0  0  0  0  0  0  0  0
   -3.5768    4.2998   17.3055 H   0  0  0  0  0  0  0  0  0  0  0  0
   -0.1166    1.5610   14.7987 H   0  0  0  0  0  0  0  0  0  0  0  0
    0.7281    0.9312   13.3439 H   0  0  0  0  0  0  0  0  0  0  0  0
    0.0619    2.5994   13.3439 H   0  0  0  0  0  0  0  0  0  0  0  0
   -0.0674   -1.5936   12.3638 H   0  0  0  0  0  0  0  0  0  0  0  0
   -8.1097    0.6621   13.8773 H   0  0  0  0  0  0  0  0  0  0  0  0
  -10.3674    1.4421   13.1519 H   0  0  0  0  0  0  0  0  0  0  0  0
  -11.0323    1.2715   10.7533 H   0  0  0  0  0  0  0  0  0  0  0  0
   -9.4422    0.3250    9.0807 H   0  0  0  0  0  0  0  0  0  0  0  0
   -7.1797   -0.4491    9.8078 H   0  0  0  0  0  0  0  0  0  0  0  0
  1  2  1  0
  2  3  1  0
  3  4  2  0
  3  5  1  0
  5  6  1  0
  6  7  1  0
  6  8  1  0
  2  9  1  0
  9 10  1  0
 10 11  2  0
 10 12  1  1
 12 13  1  0
 13 14  1  0
 14 15  1  0
 15 16  1  0
 16 17  1  0
 17 18  1  0
 17 19  1  0
 19 20  1  0
 20 21  2  0
 21 22  1  0
 22 23  2  0
 22 24  1  0
 24 25  1  0
 25 26  2  0
 16 27  1  0
 16 28  1  6
 15 29  1  0
 10 30  1  0
 30 31  1  0
 31 32  2  0
 32 33  1  0
 33 34  2  0
 34 35  1  0
 35 36  2  0
 18 14  1  0
 25 19  1  0
 36 31  1  0
  1 37  1  0
  1 38  1  0
  1 39  1  0
  2 40  1  1
  6 41  1  0
  7 42  1  0
  7 43  1  0
  7 44  1  0
  8 45  1  0
  8 46  1  0
  8 47  1  0
  9 48  1  0
 13 49  1  0
 13 50  1  0
 14 51  1  6
 15 52  1  1
 17 53  1  6
 20 54  1  0
 21 55  1  0
 24 56  1  0
 27 57  1  0
 27 58  1  0
 27 59  1  0
 29 60  1  0
 32 61  1  0
 33 62  1  0
 34 63  1  0
 35 64  1  0
 36 65  1  0
M  END
