
     RDKit          3D

 32 34  0  0  0  0  0  0  0  0999 V2000
 -112.7000   63.2810   33.0330 C   0  0  0  0  0  0  0  0  0  0  0  0
 -112.3020   62.0270   32.9550 N   0  0  0  0  0  0  0  0  0  0  0  0
 -112.3670   61.7190   31.6120 C   0  0  0  0  0  0  0  0  0  0  0  0
 -112.0850   60.5510   30.8870 C   0  0  0  0  0  0  0  0  0  0  0  0
 -112.2860   60.5520   29.5530 N   0  0  0  0  0  0  0  0  0  0  0  0
 -112.7250   61.6880   28.9670 C   0  0  0  0  0  0  0  0  0  0  0  0
 -113.0160   62.8690   29.5560 N   0  0  0  0  0  0  0  0  0  0  0  0
 -112.8150   62.8060   30.8810 C   0  0  0  0  0  0  0  0  0  0  0  0
 -113.0080   63.7970   31.8040 N   0  0  0  0  0  0  0  0  0  0  0  0
 -113.4710   65.1290   31.4910 C   0  0  1  0  0  0  0  0  0  0  0  0
 -112.3920   66.0890   30.9590 C   0  0  2  0  0  0  0  0  0  0  0  0
 -113.2250   67.0010   30.0710 C   0  0  1  0  0  0  0  0  0  0  0  0
 -114.1940   65.9970   29.4460 C   0  0  1  0  0  0  0  0  0  0  0  0
 -114.5420   65.0760   30.5100 O   0  0  0  0  0  0  0  0  0  0  0  0
 -115.4680   66.6020   28.8660 C   0  0  0  0  0  0  0  0  0  0  0  0
 -116.3440   65.5560   28.4460 O   0  0  0  0  0  0  0  0  0  0  0  0
 -113.8780   67.9970   30.8570 O   0  0  0  0  0  0  0  0  0  0  0  0
 -111.4170   65.4200   30.1510 O   0  0  0  0  0  0  0  0  0  0  0  0
 -112.9040   61.6380   27.6380 F   0  0  0  0  0  0  0  0  0  0  0  0
 -111.6240   59.3840   31.4830 N   0  0  0  0  0  0  0  0  0  0  0  0
 -112.7755   63.8454   33.9741 H   0  0  0  0  0  0  0  0  0  0  0  0
 -113.8127   65.5310   32.4562 H   0  0  0  0  0  0  0  0  0  0  0  0
 -111.8236   66.5809   31.7621 H   0  0  0  0  0  0  0  0  0  0  0  0
 -112.6633   67.5776   29.3213 H   0  0  0  0  0  0  0  0  0  0  0  0
 -113.6958   65.5255   28.5861 H   0  0  0  0  0  0  0  0  0  0  0  0
 -115.9668   67.2116   29.6338 H   0  0  0  0  0  0  0  0  0  0  0  0
 -115.2131   67.2349   28.0032 H   0  0  0  0  0  0  0  0  0  0  0  0
 -116.7228   65.1037   29.2410 H   0  0  0  0  0  0  0  0  0  0  0  0
 -113.7471   67.7974   31.8178 H   0  0  0  0  0  0  0  0  0  0  0  0
 -110.7581   64.9679   30.7355 H   0  0  0  0  0  0  0  0  0  0  0  0
 -111.4315   58.5525   30.9064 H   0  0  0  0  0  0  0  0  0  0  0  0
 -111.4747   59.3501   32.5016 H   0  0  0  0  0  0  0  0  0  0  0  0
  1  2  2  0
  2  3  1  0
  3  4  2  0
  4  5  1  0
  5  6  2  0
  6  7  1  0
  7  8  2  0
  8  9  1  0
  9 10  1  0
 10 11  1  0
 11 12  1  0
 12 13  1  0
 13 14  1  0
 13 15  1  0
 15 16  1  0
 12 17  1  0
 11 18  1  0
  6 19  1  0
  4 20  1  0
  9  1  1  0
  8  3  1  0
 14 10  1  0
  1 21  1  0
 10 22  1  1
 11 23  1  1
 12 24  1  6
 13 25  1  1
 15 26  1  0
 15 27  1  0
 16 28  1  0
 17 29  1  0
 18 30  1  0
 20 31  1  0
 20 32  1  0
M  END
