
     RDKit          3D

 33 34  0  0  0  0  0  0  0  0999 V2000
  -22.0120   66.1580   32.8510 C   0  0  0  0  0  0  0  0  0  0  0  0
  -20.6340   66.7890   33.0320 C   0  0  2  0  0  0  0  0  0  0  0  0
  -20.6810   67.8160   34.1730 C   0  0  0  0  0  0  0  0  0  0  0  0
  -19.4540   68.5850   34.2440 N   0  0  0  0  0  0  0  0  0  0  0  0
  -18.2470   68.1380   34.7080 C   0  0  0  0  0  0  0  0  0  0  0  0
  -17.3420   69.0940   34.7140 N   0  0  0  0  0  0  0  0  0  0  0  0
  -17.9950   70.2040   34.2130 C   0  0  0  0  0  0  0  0  0  0  0  0
  -17.5810   71.5230   33.9680 C   0  0  0  0  0  0  0  0  0  0  0  0
  -18.4740   72.3930   33.4390 N   0  0  0  0  0  0  0  0  0  0  0  0
  -19.7300   71.9560   33.1990 C   0  0  0  0  0  0  0  0  0  0  0  0
  -20.2450   70.7270   33.4060 N   0  0  0  0  0  0  0  0  0  0  0  0
  -19.3120   69.9020   33.9070 C   0  0  0  0  0  0  0  0  0  0  0  0
  -16.2960   71.9790   34.2280 N   0  0  0  0  0  0  0  0  0  0  0  0
  -20.2420   67.4840   31.8380 O   0  0  0  0  0  0  0  0  0  0  0  0
  -21.0580   67.1700   30.7000 C   0  0  0  0  0  0  0  0  0  0  0  0
  -20.7420   68.4310   29.4530 P   0  0  0  0  0  0  0  0  0  0  0  0
  -21.8600   68.7570   28.5200 O   0  0  0  0  0  0  0  0  0  0  0  0
  -20.1870   69.6940   30.2770 O   0  0  0  0  0  0  0  0  0  0  0  0
  -19.4030   67.9430   28.7180 O   0  0  0  0  0  0  0  0  0  0  0  0
  -22.4548   65.9552   33.8373 H   0  0  0  0  0  0  0  0  0  0  0  0
  -22.6610   66.8486   32.2926 H   0  0  0  0  0  0  0  0  0  0  0  0
  -21.9132   65.2154   32.2926 H   0  0  0  0  0  0  0  0  0  0  0  0
  -19.9166   65.9860   33.2570 H   0  0  0  0  0  0  0  0  0  0  0  0
  -21.5238   68.5020   34.0025 H   0  0  0  0  0  0  0  0  0  0  0  0
  -20.8047   67.2735   35.1219 H   0  0  0  0  0  0  0  0  0  0  0  0
  -18.0561   67.1056   35.0361 H   0  0  0  0  0  0  0  0  0  0  0  0
  -20.4231   72.7003   32.7799 H   0  0  0  0  0  0  0  0  0  0  0  0
  -16.0468   72.9583   34.0285 H   0  0  0  0  0  0  0  0  0  0  0  0
  -15.5916   71.3381   34.6204 H   0  0  0  0  0  0  0  0  0  0  0  0
  -20.7919   66.1773   30.3079 H   0  0  0  0  0  0  0  0  0  0  0  0
  -22.1226   67.1523   30.9761 H   0  0  0  0  0  0  0  0  0  0  0  0
  -20.2656   69.5152   31.2475 H   0  0  0  0  0  0  0  0  0  0  0  0
  -18.7255   67.6961   29.3963 H   0  0  0  0  0  0  0  0  0  0  0  0
  1  2  1  0
  2  3  1  0
  3  4  1  0
  4  5  1  0
  5  6  2  0
  6  7  1  0
  7  8  2  0
  8  9  1  0
  9 10  2  0
 10 11  1  0
 11 12  2  0
  8 13  1  0
  2 14  1  0
 14 15  1  0
 15 16  1  0
 16 17  2  0
 16 18  1  0
 16 19  1  0
 12  4  1  0
 12  7  1  0
  1 20  1  0
  1 21  1  0
  1 22  1  0
  2 23  1  1
  3 24  1  0
  3 25  1  0
  5 26  1  0
 10 27  1  0
 13 28  1  0
 13 29  1  0
 15 30  1  0
 15 31  1  0
 18 32  1  0
 19 33  1  0
M  END
