
     RDKit          3D

 62 65  0  0  0  0  0  0  0  0999 V2000
   -3.8390   -4.5530    8.3550 C   0  0  0  0  0  0  0  0  0  0  0  0
   -3.0710   -5.4050    9.4010 C   0  0  0  0  0  0  0  0  0  0  0  0
   -4.1430   -5.9900   10.3430 C   0  0  0  0  0  0  0  0  0  0  0  0
   -2.3990   -6.5440    8.5980 C   0  0  0  0  0  0  0  0  0  0  0  0
   -2.0180   -4.6020   10.2080 C   0  0  0  0  0  0  0  0  0  0  0  0
   -0.7430   -5.1560   10.4740 C   0  0  0  0  0  0  0  0  0  0  0  0
    0.2400   -4.5090   11.2480 C   0  0  0  0  0  0  0  0  0  0  0  0
   -0.0870   -3.2650   11.7920 C   0  0  0  0  0  0  0  0  0  0  0  0
   -1.3320   -2.6490   11.5610 C   0  0  0  0  0  0  0  0  0  0  0  0
   -2.2680   -3.3090   10.7260 C   0  0  0  0  0  0  0  0  0  0  0  0
   -3.4820   -2.7220   10.4500 O   0  0  0  0  0  0  0  0  0  0  0  0
   -4.4070   -2.8380   11.5350 C   0  0  0  0  0  0  0  0  0  0  0  0
   -1.6130   -1.3650   12.2330 C   0  0  0  0  0  0  0  0  0  0  0  0
   -2.0060   -1.3250   13.5820 C   0  0  0  0  0  0  0  0  0  0  0  0
   -2.2770   -0.1090   14.2350 C   0  0  0  0  0  0  0  0  0  0  0  0
   -2.1570    1.1030   13.5180 C   0  0  0  0  0  0  0  0  0  0  0  0
   -1.7720    1.0660   12.1710 C   0  0  0  0  0  0  0  0  0  0  0  0
   -1.5070   -0.1520   11.5380 C   0  0  0  0  0  0  0  0  0  0  0  0
   -2.4210    2.3190   14.1700 C   0  0  0  0  0  0  0  0  0  0  0  0
   -2.8140    2.3320   15.5070 C   0  0  0  0  0  0  0  0  0  0  0  0
   -2.9220    1.1410   16.2210 C   0  0  0  0  0  0  0  0  0  0  0  0
   -2.6600   -0.0740   15.5850 C   0  0  0  0  0  0  0  0  0  0  0  0
   -3.0360    3.5780   16.1650 N   0  0  0  0  0  0  0  0  0  0  0  0
   -4.6400    4.1140   16.2720 S   0  0  0  0  0  0  0  0  0  0  0  0
   -4.5720    5.5510   16.1070 O   0  0  0  0  0  0  0  0  0  0  0  0
   -5.5010    3.3030   15.4410 O   0  0  0  0  0  0  0  0  0  0  0  0
   -5.0010    3.7860   17.9830 C   0  0  0  0  0  0  0  0  0  0  0  0
    1.5370   -5.1210   11.4590 N   0  0  0  0  0  0  0  0  0  0  0  0
    2.1450   -5.0840   12.7110 C   0  0  0  0  0  0  0  0  0  0  0  0
    3.3500   -5.6010   12.9600 C   0  0  0  0  0  0  0  0  0  0  0  0
    4.0820   -6.2490   11.8710 C   0  0  0  0  0  0  0  0  0  0  0  0
    5.2200   -6.6710   12.0330 O   0  0  0  0  0  0  0  0  0  0  0  0
    3.4090   -6.3400   10.6920 N   0  0  0  0  0  0  0  0  0  0  0  0
    2.2050   -5.7500   10.3840 C   0  0  0  0  0  0  0  0  0  0  0  0
    1.8380   -5.7860    9.2110 O   0  0  0  0  0  0  0  0  0  0  0  0
   -4.4883   -3.8327    8.8743 H   0  0  0  0  0  0  0  0  0  0  0  0
   -3.1193   -4.0099    7.7248 H   0  0  0  0  0  0  0  0  0  0  0  0
   -4.4536   -5.2126    7.7248 H   0  0  0  0  0  0  0  0  0  0  0  0
   -3.8418   -5.8257   11.3881 H   0  0  0  0  0  0  0  0  0  0  0  0
   -5.1061   -5.4924   10.1564 H   0  0  0  0  0  0  0  0  0  0  0  0
   -4.2456   -7.0692   10.1564 H   0  0  0  0  0  0  0  0  0  0  0  0
   -1.9662   -7.2775    9.2942 H   0  0  0  0  0  0  0  0  0  0  0  0
   -3.1500   -7.0385    7.9645 H   0  0  0  0  0  0  0  0  0  0  0  0
   -1.6030   -6.1258    7.9645 H   0  0  0  0  0  0  0  0  0  0  0  0
   -0.5071   -6.1448   10.0538 H   0  0  0  0  0  0  0  0  0  0  0  0
    0.6527   -2.7492   12.4219 H   0  0  0  0  0  0  0  0  0  0  0  0
   -3.8636   -2.7699   12.4890 H   0  0  0  0  0  0  0  0  0  0  0  0
   -5.1461   -2.0255   11.4752 H   0  0  0  0  0  0  0  0  0  0  0  0
   -4.9226   -3.8078   11.4752 H   0  0  0  0  0  0  0  0  0  0  0  0
   -2.1040   -2.2675   14.1406 H   0  0  0  0  0  0  0  0  0  0  0  0
   -1.6773    2.0050   11.6059 H   0  0  0  0  0  0  0  0  0  0  0  0
   -1.2108   -0.1588   10.4786 H   0  0  0  0  0  0  0  0  0  0  0  0
   -2.3169    3.2669   13.6217 H   0  0  0  0  0  0  0  0  0  0  0  0
   -3.2126    1.1576   17.2818 H   0  0  0  0  0  0  0  0  0  0  0  0
   -2.7548   -1.0142   16.1481 H   0  0  0  0  0  0  0  0  0  0  0  0
   -2.2573    4.1266   16.5570 H   0  0  0  0  0  0  0  0  0  0  0  0
   -4.3372    4.3891   18.6199 H   0  0  0  0  0  0  0  0  0  0  0  0
   -6.0485    4.0478   18.1935 H   0  0  0  0  0  0  0  0  0  0  0  0
   -4.8405    2.7183   18.1935 H   0  0  0  0  0  0  0  0  0  0  0  0
    1.6034   -4.6031   13.5389 H   0  0  0  0  0  0  0  0  0  0  0  0
    3.7861   -5.5410   13.9681 H   0  0  0  0  0  0  0  0  0  0  0  0
    3.8463   -6.9096    9.9536 H   0  0  0  0  0  0  0  0  0  0  0  0
  1  2  1  0
  2  3  1  0
  2  4  1  0
  2  5  1  0
  5  6  2  0
  6  7  1  0
  7  8  2  0
  8  9  1  0
  9 10  2  0
 10 11  1  0
 11 12  1  0
  9 13  1  0
 13 14  2  0
 14 15  1  0
 15 16  2  0
 16 17  1  0
 17 18  2  0
 16 19  1  0
 19 20  2  0
 20 21  1  0
 21 22  2  0
 20 23  1  0
 23 24  1  0
 24 25  2  0
 24 26  2  0
 24 27  1  0
  7 28  1  0
 28 29  1  0
 29 30  2  0
 30 31  1  0
 31 32  2  0
 31 33  1  0
 33 34  1  0
 34 35  2  0
 10  5  1  0
 18 13  1  0
 22 15  1  0
 34 28  1  0
  1 36  1  0
  1 37  1  0
  1 38  1  0
  3 39  1  0
  3 40  1  0
  3 41  1  0
  4 42  1  0
  4 43  1  0
  4 44  1  0
  6 45  1  0
  8 46  1  0
 12 47  1  0
 12 48  1  0
 12 49  1  0
 14 50  1  0
 17 51  1  0
 18 52  1  0
 19 53  1  0
 21 54  1  0
 22 55  1  0
 23 56  1  0
 27 57  1  0
 27 58  1  0
 27 59  1  0
 29 60  1  0
 30 61  1  0
 33 62  1  0
M  END
