
     RDKit          3D

 65 67  0  0  0  0  0  0  0  0999 V2000
  -22.1490   72.0090   26.1260 C   0  0  0  0  0  0  0  0  0  0  0  0
  -21.7950   70.5320   25.9850 C   0  0  1  0  0  0  0  0  0  0  0  0
  -21.0580   70.3400   24.6540 C   0  0  0  0  0  0  0  0  0  0  0  0
  -19.8390   70.2840   24.5420 O   0  0  0  0  0  0  0  0  0  0  0  0
  -21.9490   70.2890   23.6240 O   0  0  0  0  0  0  0  0  0  0  0  0
  -23.0610   69.3910   23.7920 C   0  0  0  0  0  0  0  0  0  0  0  0
  -22.8220   68.1260   22.9760 C   0  0  0  0  0  0  0  0  0  0  0  0
  -24.3050   70.1220   23.3020 C   0  0  0  0  0  0  0  0  0  0  0  0
  -20.9370   70.0490   27.0680 N   0  0  0  0  0  0  0  0  0  0  0  0
  -21.5190   69.6810   28.5400 P   0  0  2  0  0  5  0  0  0  0  0  0
  -23.0080   69.7920   28.6770 O   0  0  0  0  0  0  0  0  0  0  0  0
  -20.7180   70.6240   29.5740 O   0  0  0  0  0  0  0  0  0  0  0  0
  -21.4060   71.7210   30.1640 C   0  0  0  0  0  0  0  0  0  0  0  0
  -22.1280   71.2370   31.4190 C   0  0  2  0  0  0  0  0  0  0  0  0
  -22.5290   72.3830   32.3460 C   0  0  2  0  0  0  0  0  0  0  0  0
  -22.6030   71.6710   33.6880 C   0  0  1  0  0  0  0  0  0  0  0  0
  -21.5290   70.5750   33.5750 C   0  0  1  0  0  0  0  0  0  0  0  0
  -21.2490   70.3740   32.1750 O   0  0  0  0  0  0  0  0  0  0  0  0
  -20.2620   70.7430   34.2950 N   0  0  0  0  0  0  0  0  0  0  0  0
  -19.2690   71.5180   33.7210 C   0  0  0  0  0  0  0  0  0  0  0  0
  -18.0980   71.7390   34.3240 C   0  0  0  0  0  0  0  0  0  0  0  0
  -17.8570   71.1450   35.6450 C   0  0  0  0  0  0  0  0  0  0  0  0
  -16.7930   71.3080   36.2290 O   0  0  0  0  0  0  0  0  0  0  0  0
  -18.8850   70.4090   36.1550 N   0  0  0  0  0  0  0  0  0  0  0  0
  -20.0870   70.1640   35.5460 C   0  0  0  0  0  0  0  0  0  0  0  0
  -20.9150   69.4520   36.1060 O   0  0  0  0  0  0  0  0  0  0  0  0
  -22.5560   72.5780   34.9030 C   0  0  0  0  0  0  0  0  0  0  0  0
  -23.8130   71.0090   33.7550 F   0  0  0  0  0  0  0  0  0  0  0  0
  -23.7670   73.0000   31.9970 O   0  0  0  0  0  0  0  0  0  0  0  0
  -20.9410   68.2080   28.8780 O   0  0  0  0  0  0  0  0  0  0  0  0
  -20.8390   67.7340   30.1540 C   0  0  0  0  0  0  0  0  0  0  0  0
  -19.5760   67.7190   30.7390 C   0  0  0  0  0  0  0  0  0  0  0  0
  -19.4240   67.2530   32.0450 C   0  0  0  0  0  0  0  0  0  0  0  0
  -20.5320   66.7870   32.7520 C   0  0  0  0  0  0  0  0  0  0  0  0
  -21.7910   66.7810   32.1520 C   0  0  0  0  0  0  0  0  0  0  0  0
  -21.9450   67.2500   30.8460 C   0  0  0  0  0  0  0  0  0  0  0  0
  -22.2117   72.2708   27.1925 H   0  0  0  0  0  0  0  0  0  0  0  0
  -21.3719   72.6200   25.6436 H   0  0  0  0  0  0  0  0  0  0  0  0
  -23.1187   72.2013   25.6436 H   0  0  0  0  0  0  0  0  0  0  0  0
  -22.7315   69.9563   26.0249 H   0  0  0  0  0  0  0  0  0  0  0  0
  -23.1832   69.0951   24.8444 H   0  0  0  0  0  0  0  0  0  0  0  0
  -22.6614   67.2761   23.6557 H   0  0  0  0  0  0  0  0  0  0  0  0
  -23.6986   67.9277   22.3417 H   0  0  0  0  0  0  0  0  0  0  0  0
  -21.9335   68.2612   22.3417 H   0  0  0  0  0  0  0  0  0  0  0  0
  -24.8919   70.4668   24.1661 H   0  0  0  0  0  0  0  0  0  0  0  0
  -24.0056   70.9878   22.6931 H   0  0  0  0  0  0  0  0  0  0  0  0
  -24.9156   69.4391   22.6931 H   0  0  0  0  0  0  0  0  0  0  0  0
  -20.4854   69.1928   26.7159 H   0  0  0  0  0  0  0  0  0  0  0  0
  -20.6850   72.5070   30.4331 H   0  0  0  0  0  0  0  0  0  0  0  0
  -22.1356   72.1301   29.4496 H   0  0  0  0  0  0  0  0  0  0  0  0
  -23.0349   70.7161   31.0780 H   0  0  0  0  0  0  0  0  0  0  0  0
  -21.8257   73.2281   32.3128 H   0  0  0  0  0  0  0  0  0  0  0  0
  -21.9809   69.7119   34.0857 H   0  0  0  0  0  0  0  0  0  0  0  0
  -19.4507   71.9676   32.7337 H   0  0  0  0  0  0  0  0  0  0  0  0
  -17.3269   72.3557   33.8391 H   0  0  0  0  0  0  0  0  0  0  0  0
  -18.7441   69.9974   37.0886 H   0  0  0  0  0  0  0  0  0  0  0  0
  -22.5876   71.9677   35.8176 H   0  0  0  0  0  0  0  0  0  0  0  0
  -21.6262   73.1655   34.8862 H   0  0  0  0  0  0  0  0  0  0  0  0
  -23.4201   73.2585   34.8862 H   0  0  0  0  0  0  0  0  0  0  0  0
  -24.2577   73.2446   32.8213 H   0  0  0  0  0  0  0  0  0  0  0  0
  -18.7013   68.0732   30.1737 H   0  0  0  0  0  0  0  0  0  0  0  0
  -18.4304   67.2531   32.5170 H   0  0  0  0  0  0  0  0  0  0  0  0
  -20.4129   66.4239   33.7835 H   0  0  0  0  0  0  0  0  0  0  0  0
  -22.6631   66.4066   32.7080 H   0  0  0  0  0  0  0  0  0  0  0  0
  -22.9350   67.2370   30.3668 H   0  0  0  0  0  0  0  0  0  0  0  0
  1  2  1  0
  2  3  1  0
  3  4  2  0
  3  5  1  0
  5  6  1  0
  6  7  1  0
  6  8  1  0
  2  9  1  0
  9 10  1  0
 10 11  2  0
 10 12  1  1
 12 13  1  0
 13 14  1  0
 14 15  1  0
 15 16  1  0
 16 17  1  0
 17 18  1  0
 17 19  1  0
 19 20  1  0
 20 21  2  0
 21 22  1  0
 22 23  2  0
 22 24  1  0
 24 25  1  0
 25 26  2  0
 16 27  1  0
 16 28  1  6
 15 29  1  0
 10 30  1  0
 30 31  1  0
 31 32  2  0
 32 33  1  0
 33 34  2  0
 34 35  1  0
 35 36  2  0
 18 14  1  0
 25 19  1  0
 36 31  1  0
  1 37  1  0
  1 38  1  0
  1 39  1  0
  2 40  1  6
  6 41  1  0
  7 42  1  0
  7 43  1  0
  7 44  1  0
  8 45  1  0
  8 46  1  0
  8 47  1  0
  9 48  1  0
 13 49  1  0
 13 50  1  0
 14 51  1  6
 15 52  1  1
 17 53  1  1
 20 54  1  0
 21 55  1  0
 24 56  1  0
 27 57  1  0
 27 58  1  0
 27 59  1  0
 29 60  1  0
 32 61  1  0
 33 62  1  0
 34 63  1  0
 35 64  1  0
 36 65  1  0
M  END
