
     RDKit          3D

 43 46  0  0  0  0  0  0  0  0999 V2000
 -115.2880   68.7030   27.6380 C   0  0  0  0  0  0  0  0  0  0  0  0
 -115.5820   68.0870   28.9900 C   0  0  0  0  0  0  0  0  0  0  0  0
 -114.1400   68.1200   30.0460 S   0  0  0  0  0  0  0  0  0  0  0  0
 -114.5630   68.1340   31.4300 O   0  0  0  0  0  0  0  0  0  0  0  0
 -113.1970   69.0880   29.5300 O   0  0  0  0  0  0  0  0  0  0  0  0
 -113.4920   66.5810   29.7480 N   0  0  0  0  0  0  0  0  0  0  0  0
 -114.2820   65.3060   29.7540 C   0  0  0  0  0  0  0  0  0  0  0  0
 -113.4640   64.7810   30.9610 C   0  0  0  0  0  0  0  0  0  0  0  0
 -112.4760   65.9280   30.6370 C   0  0  0  0  0  0  0  0  0  0  0  0
 -114.2030   64.8240   32.2930 C   0  0  0  0  0  0  0  0  0  0  0  0
 -115.5580   64.2690   32.1770 C   0  0  0  0  0  0  0  0  0  0  0  0
 -116.6150   63.7990   32.1050 N   0  0  0  0  0  0  0  0  0  0  0  0
 -112.9310   63.4310   30.6760 N   0  0  0  0  0  0  0  0  0  0  0  0
 -112.6620   62.4700   31.6060 C   0  0  0  0  0  0  0  0  0  0  0  0
 -112.2330   61.3550   30.9110 C   0  0  0  0  0  0  0  0  0  0  0  0
 -112.3430   61.7430   29.5580 C   0  0  0  0  0  0  0  0  0  0  0  0
 -112.7660   63.0020   29.4100 N   0  0  0  0  0  0  0  0  0  0  0  0
 -111.8490   60.1110   31.5390 C   0  0  0  0  0  0  0  0  0  0  0  0
 -112.4730   58.8890   31.2570 C   0  0  0  0  0  0  0  0  0  0  0  0
 -113.4990   58.3860   30.4040 C   0  0  0  0  0  0  0  0  0  0  0  0
 -113.6170   57.0300   30.6320 C   0  0  0  0  0  0  0  0  0  0  0  0
 -112.6960   56.6870   31.5860 N   0  0  0  0  0  0  0  0  0  0  0  0
 -111.9900   57.7960   31.9640 C   0  0  0  0  0  0  0  0  0  0  0  0
 -111.0020   57.7860   32.8700 N   0  0  0  0  0  0  0  0  0  0  0  0
 -110.4730   59.0060   33.0420 C   0  0  0  0  0  0  0  0  0  0  0  0
 -110.8280   60.1520   32.4320 N   0  0  0  0  0  0  0  0  0  0  0  0
 -114.8181   69.6876   27.7781 H   0  0  0  0  0  0  0  0  0  0  0  0
 -114.6056   68.0475   27.0770 H   0  0  0  0  0  0  0  0  0  0  0  0
 -116.2268   68.8212   27.0770 H   0  0  0  0  0  0  0  0  0  0  0  0
 -116.3927   68.6524   29.4728 H   0  0  0  0  0  0  0  0  0  0  0  0
 -115.8765   67.0382   28.8371 H   0  0  0  0  0  0  0  0  0  0  0  0
 -115.3522   65.4452   29.9670 H   0  0  0  0  0  0  0  0  0  0  0  0
 -114.3593   64.7025   28.8376 H   0  0  0  0  0  0  0  0  0  0  0  0
 -112.1935   66.5333   31.5109 H   0  0  0  0  0  0  0  0  0  0  0  0
 -111.4736   65.6962   30.2479 H   0  0  0  0  0  0  0  0  0  0  0  0
 -113.6391   64.2376   33.0333 H   0  0  0  0  0  0  0  0  0  0  0  0
 -114.2871   65.8751   32.6064 H   0  0  0  0  0  0  0  0  0  0  0  0
 -112.7662   62.5642   32.6970 H   0  0  0  0  0  0  0  0  0  0  0  0
 -112.1054   61.0786   28.7141 H   0  0  0  0  0  0  0  0  0  0  0  0
 -114.0924   58.9754   29.6895 H   0  0  0  0  0  0  0  0  0  0  0  0
 -114.3235   56.3476   30.1368 H   0  0  0  0  0  0  0  0  0  0  0  0
 -112.5562   55.7382   31.9617 H   0  0  0  0  0  0  0  0  0  0  0  0
 -109.6504   59.0790   33.7686 H   0  0  0  0  0  0  0  0  0  0  0  0
  1  2  1  0
  2  3  1  0
  3  4  2  0
  3  5  2  0
  3  6  1  0
  6  7  1  0
  7  8  1  0
  8  9  1  0
  8 10  1  0
 10 11  1  0
 11 12  3  0
  8 13  1  0
 13 14  1  0
 14 15  2  0
 15 16  1  0
 16 17  2  0
 15 18  1  0
 18 19  2  0
 19 20  1  0
 20 21  2  0
 21 22  1  0
 22 23  1  0
 23 24  2  0
 24 25  1  0
 25 26  2  0
  9  6  1  0
 17 13  1  0
 26 18  1  0
 23 19  1  0
  1 27  1  0
  1 28  1  0
  1 29  1  0
  2 30  1  0
  2 31  1  0
  7 32  1  0
  7 33  1  0
  9 34  1  0
  9 35  1  0
 10 36  1  0
 10 37  1  0
 14 38  1  0
 16 39  1  0
 20 40  1  0
 21 41  1  0
 22 42  1  0
 25 43  1  0
M  END
