
     RDKit          3D

 51 52  0  0  0  0  0  0  0  0999 V2000
  -12.4180    7.5740   18.8510 C   0  0  0  0  0  0  0  0  0  0  0  0
  -12.3700    7.5130   20.3030 N   0  0  0  0  0  0  0  0  0  0  0  0
  -13.4670    8.1560   21.0080 C   0  0  0  0  0  0  0  0  0  0  0  0
  -11.3300    6.9540   21.0410 C   0  0  0  0  0  0  0  0  0  0  0  0
  -11.3990    6.8150   22.2640 O   0  0  0  0  0  0  0  0  0  0  0  0
  -10.0940    6.4480   20.2820 C   0  0  0  0  0  0  0  0  0  0  0  0
   -9.0620    5.8660   21.0790 O   0  0  0  0  0  0  0  0  0  0  0  0
   -7.9050    6.5920   21.1370 C   0  0  0  0  0  0  0  0  0  0  0  0
   -7.3390    6.9150   22.1700 O   0  0  0  0  0  0  0  0  0  0  0  0
   -7.4550    6.9080   19.7270 C   0  0  0  0  0  0  0  0  0  0  0  0
   -6.6780    5.8000   19.0590 C   0  0  0  0  0  0  0  0  0  0  0  0
   -6.8030    4.4750   19.5060 C   0  0  0  0  0  0  0  0  0  0  0  0
   -6.0830    3.4510   18.8900 C   0  0  0  0  0  0  0  0  0  0  0  0
   -5.2440    3.7540   17.8210 C   0  0  0  0  0  0  0  0  0  0  0  0
   -5.0810    5.0650   17.3820 C   0  0  0  0  0  0  0  0  0  0  0  0
   -5.8030    6.0870   17.9990 C   0  0  0  0  0  0  0  0  0  0  0  0
   -4.4960    2.7170   17.2580 O   0  0  0  0  0  0  0  0  0  0  0  0
   -3.1440    2.7720   17.5390 C   0  0  0  0  0  0  0  0  0  0  0  0
   -2.6170    3.1360   18.5800 O   0  0  0  0  0  0  0  0  0  0  0  0
   -2.3650    2.3170   16.3530 C   0  0  0  0  0  0  0  0  0  0  0  0
   -1.0180    1.9510   16.4230 C   0  0  0  0  0  0  0  0  0  0  0  0
   -0.3380    1.5320   15.2710 C   0  0  0  0  0  0  0  0  0  0  0  0
   -0.9820    1.4490   14.0310 C   0  0  0  0  0  0  0  0  0  0  0  0
   -2.3280    1.8470   13.9710 C   0  0  0  0  0  0  0  0  0  0  0  0
   -3.0160    2.2670   15.1160 C   0  0  0  0  0  0  0  0  0  0  0  0
   -0.3350    1.0820   12.8350 N   0  0  0  0  0  0  0  0  0  0  0  0
   -0.4510   -0.0740   12.1250 C   0  0  0  0  0  0  0  0  0  0  0  0
   -1.2070   -1.0820   12.3700 N   0  0  0  0  0  0  0  0  0  0  0  0
    0.3660   -0.0660   11.0420 N   0  0  0  0  0  0  0  0  0  0  0  0
  -13.0705    8.4032   18.5402 H   0  0  0  0  0  0  0  0  0  0  0  0
  -11.4041    7.7379   18.4572 H   0  0  0  0  0  0  0  0  0  0  0  0
  -12.8157    6.6270   18.4572 H   0  0  0  0  0  0  0  0  0  0  0  0
  -13.3098    8.0639   22.0928 H   0  0  0  0  0  0  0  0  0  0  0  0
  -13.5064    9.2202   20.7323 H   0  0  0  0  0  0  0  0  0  0  0  0
  -14.4148    7.6705   20.7323 H   0  0  0  0  0  0  0  0  0  0  0  0
  -10.4302    5.6886   19.5607 H   0  0  0  0  0  0  0  0  0  0  0  0
   -9.6442    7.3401   19.8218 H   0  0  0  0  0  0  0  0  0  0  0  0
   -8.3478    7.1172   19.1194 H   0  0  0  0  0  0  0  0  0  0  0  0
   -6.7750    7.7696   19.7995 H   0  0  0  0  0  0  0  0  0  0  0  0
   -7.4728    4.2428   20.3471 H   0  0  0  0  0  0  0  0  0  0  0  0
   -6.1773    2.4143   19.2454 H   0  0  0  0  0  0  0  0  0  0  0  0
   -4.3900    5.2928   16.5570 H   0  0  0  0  0  0  0  0  0  0  0  0
   -5.6860    7.1245   17.6528 H   0  0  0  0  0  0  0  0  0  0  0  0
   -0.4890    1.9919   17.3866 H   0  0  0  0  0  0  0  0  0  0  0  0
    0.7260    1.2623   15.3431 H   0  0  0  0  0  0  0  0  0  0  0  0
   -2.8524    1.8283   13.0042 H   0  0  0  0  0  0  0  0  0  0  0  0
   -4.0739    2.5591   15.0423 H   0  0  0  0  0  0  0  0  0  0  0  0
   -1.1946   -1.8994   11.7434 H   0  0  0  0  0  0  0  0  0  0  0  0
   -1.8260   -1.0735   13.1932 H   0  0  0  0  0  0  0  0  0  0  0  0
    0.3874   -0.8767   10.4071 H   0  0  0  0  0  0  0  0  0  0  0  0
    0.9649    0.7508   10.8547 H   0  0  0  0  0  0  0  0  0  0  0  0
  1  2  1  0
  2  3  1  0
  2  4  1  0
  4  5  2  0
  4  6  1  0
  6  7  1  0
  7  8  1  0
  8  9  2  0
  8 10  1  0
 10 11  1  0
 11 12  2  0
 12 13  1  0
 13 14  2  0
 14 15  1  0
 15 16  2  0
 14 17  1  0
 17 18  1  0
 18 19  2  0
 18 20  1  0
 20 21  2  0
 21 22  1  0
 22 23  2  0
 23 24  1  0
 24 25  2  0
 23 26  1  0
 26 27  2  3
 27 28  1  0
 27 29  1  0
 16 11  1  0
 25 20  1  0
  1 30  1  0
  1 31  1  0
  1 32  1  0
  3 33  1  0
  3 34  1  0
  3 35  1  0
  6 36  1  0
  6 37  1  0
 10 38  1  0
 10 39  1  0
 12 40  1  0
 13 41  1  0
 15 42  1  0
 16 43  1  0
 21 44  1  0
 22 45  1  0
 24 46  1  0
 25 47  1  0
 28 48  1  0
 28 49  1  0
 29 50  1  0
 29 51  1  0
M  END
