
     RDKit          3D

 30 31  0  0  0  0  0  0  0  0999 V2000
  -19.4400   71.9750   33.0440 C   0  0  0  0  0  0  0  0  0  0  0  0
  -18.2620   72.4300   33.5220 N   0  0  0  0  0  0  0  0  0  0  0  0
  -17.3740   71.5310   34.0070 C   0  0  0  0  0  0  0  0  0  0  0  0
  -17.7090   70.1680   33.9630 C   0  0  0  0  0  0  0  0  0  0  0  0
  -18.9520   69.8520   33.4390 C   0  0  0  0  0  0  0  0  0  0  0  0
  -19.8760   70.7000   32.9570 N   0  0  0  0  0  0  0  0  0  0  0  0
  -19.0250   68.4890   33.5110 N   0  0  0  0  0  0  0  0  0  0  0  0
  -17.8540   68.0350   34.0540 C   0  0  0  0  0  0  0  0  0  0  0  0
  -17.0290   69.0230   34.3330 N   0  0  0  0  0  0  0  0  0  0  0  0
  -20.1480   67.6830   33.0950 C   0  0  0  0  0  0  0  0  0  0  0  0
  -19.9050   66.9950   31.7550 C   0  0  0  0  0  0  0  0  0  0  0  0
  -19.4470   67.9310   30.7790 O   0  0  0  0  0  0  0  0  0  0  0  0
  -19.9270   67.6330   29.4590 C   0  0  0  0  0  0  0  0  0  0  0  0
  -20.7440   69.0880   28.8080 P   0  0  0  0  0  0  0  0  0  0  0  0
  -22.2170   69.0380   28.5590 O   0  0  0  0  0  0  0  0  0  0  0  0
  -20.3740   70.2850   29.8130 O   0  0  0  0  0  0  0  0  0  0  0  0
  -19.9310   69.5440   27.5030 O   0  0  0  0  0  0  0  0  0  0  0  0
  -16.1650   72.0010   34.5050 N   0  0  0  0  0  0  0  0  0  0  0  0
  -20.1359   72.7440   32.6773 H   0  0  0  0  0  0  0  0  0  0  0  0
  -17.6290   66.9737   34.2355 H   0  0  0  0  0  0  0  0  0  0  0  0
  -20.3328   66.9134   33.8589 H   0  0  0  0  0  0  0  0  0  0  0  0
  -21.0146   68.3502   32.9774 H   0  0  0  0  0  0  0  0  0  0  0  0
  -19.1458   66.2098   31.8854 H   0  0  0  0  0  0  0  0  0  0  0  0
  -20.8525   66.5582   31.4065 H   0  0  0  0  0  0  0  0  0  0  0  0
  -19.0818   67.3605   28.8098 H   0  0  0  0  0  0  0  0  0  0  0  0
  -20.6327   66.7901   29.4965 H   0  0  0  0  0  0  0  0  0  0  0  0
  -20.4705   69.9729   30.7476 H   0  0  0  0  0  0  0  0  0  0  0  0
  -19.1013   70.0094   27.7770 H   0  0  0  0  0  0  0  0  0  0  0  0
  -15.4705   71.3394   34.8803 H   0  0  0  0  0  0  0  0  0  0  0  0
  -15.9632   73.0110   34.4988 H   0  0  0  0  0  0  0  0  0  0  0  0
  1  2  2  0
  2  3  1  0
  3  4  2  0
  4  5  1  0
  5  6  2  0
  5  7  1  0
  7  8  1  0
  8  9  2  0
  7 10  1  0
 10 11  1  0
 11 12  1  0
 12 13  1  0
 13 14  1  0
 14 15  2  0
 14 16  1  0
 14 17  1  0
  3 18  1  0
  6  1  1  0
  9  4  1  0
  1 19  1  0
  8 20  1  0
 10 21  1  0
 10 22  1  0
 11 23  1  0
 11 24  1  0
 13 25  1  0
 13 26  1  0
 16 27  1  0
 17 28  1  0
 18 29  1  0
 18 30  1  0
M  END
