
     RDKit          3D

 62 64  0  0  0  0  0  0  0  0999 V2000
  -19.1280   67.0870   36.8780 C   0  0  0  0  0  0  0  0  0  0  0  0
  -19.3040   68.0890   35.7760 C   0  0  0  0  0  0  0  0  0  0  0  0
  -18.2850   68.9750   35.4490 C   0  0  0  0  0  0  0  0  0  0  0  0
  -16.9360   69.1530   36.0280 C   0  0  0  0  0  0  0  0  0  0  0  0
  -16.3800   70.2510   35.2700 O   0  0  0  0  0  0  0  0  0  0  0  0
  -17.2540   70.7000   34.3260 C   0  0  0  0  0  0  0  0  0  0  0  0
  -17.0980   71.6180   33.5430 O   0  0  0  0  0  0  0  0  0  0  0  0
  -18.4500   69.8870   34.4290 C   0  0  0  0  0  0  0  0  0  0  0  0
  -19.6050   69.9780   33.6740 C   0  0  0  0  0  0  0  0  0  0  0  0
  -20.6770   69.1330   33.9910 C   0  0  0  0  0  0  0  0  0  0  0  0
  -20.5200   68.2190   35.0670 C   0  0  0  0  0  0  0  0  0  0  0  0
  -21.5770   67.4010   35.3880 O   0  0  0  0  0  0  0  0  0  0  0  0
  -22.4170   68.0180   36.3680 C   0  0  0  0  0  0  0  0  0  0  0  0
  -21.9920   69.2610   33.2460 C   0  0  0  0  0  0  0  0  0  0  0  0
  -21.8510   68.7640   31.8270 C   0  0  0  0  0  0  0  0  0  0  0  0
  -21.8640   67.4910   31.3790 C   0  0  0  0  0  0  0  0  0  0  0  0
  -22.1780   66.2990   32.2450 C   0  0  0  0  0  0  0  0  0  0  0  0
  -21.4900   67.1210   29.9510 C   0  0  0  0  0  0  0  0  0  0  0  0
  -20.5210   68.0470   29.2090 C   0  0  0  0  0  0  0  0  0  0  0  0
  -21.1850   69.2830   28.6440 C   0  0  0  0  0  0  0  0  0  0  0  0
  -20.6320   70.3760   28.5910 O   0  0  0  0  0  0  0  0  0  0  0  0
  -22.4540   69.0090   28.2420 O   0  0  0  0  0  0  0  0  0  0  0  0
  -23.1580   70.0790   27.5900 C   0  0  0  0  0  0  0  0  0  0  0  0
  -23.6720   69.6190   26.2150 C   0  0  0  0  0  0  0  0  0  0  0  0
  -23.1670   70.4030   25.0740 N   0  0  0  0  0  0  0  0  0  0  0  0
  -21.7990   70.9290   25.2750 C   0  0  0  0  0  0  0  0  0  0  0  0
  -20.7190   70.1470   24.5100 C   0  0  0  0  0  0  0  0  0  0  0  0
  -20.9370   70.1090   23.0930 O   0  0  0  0  0  0  0  0  0  0  0  0
  -22.3250   70.1890   22.7370 C   0  0  0  0  0  0  0  0  0  0  0  0
  -23.2480   69.6190   23.8240 C   0  0  0  0  0  0  0  0  0  0  0  0
  -19.7150   70.8740   32.6480 O   0  0  0  0  0  0  0  0  0  0  0  0
  -19.2168   67.5926   37.8509 H   0  0  0  0  0  0  0  0  0  0  0  0
  -19.9037   66.3114   36.7957 H   0  0  0  0  0  0  0  0  0  0  0  0
  -18.1345   66.6221   36.7957 H   0  0  0  0  0  0  0  0  0  0  0  0
  -16.9981   69.4059   37.0967 H   0  0  0  0  0  0  0  0  0  0  0  0
  -16.3233   68.2413   35.9696 H   0  0  0  0  0  0  0  0  0  0  0  0
  -22.0597   67.7556   37.3747 H   0  0  0  0  0  0  0  0  0  0  0  0
  -22.3869   69.1103   36.2414 H   0  0  0  0  0  0  0  0  0  0  0  0
  -23.4503   67.6626   36.2414 H   0  0  0  0  0  0  0  0  0  0  0  0
  -22.7594   68.6658   33.7627 H   0  0  0  0  0  0  0  0  0  0  0  0
  -22.2839   70.3213   33.2224 H   0  0  0  0  0  0  0  0  0  0  0  0
  -21.7208   69.5404   31.0587 H   0  0  0  0  0  0  0  0  0  0  0  0
  -22.1026   66.5854   33.3044 H   0  0  0  0  0  0  0  0  0  0  0  0
  -23.1989   65.9494   32.0315 H   0  0  0  0  0  0  0  0  0  0  0  0
  -21.4618   65.4918   32.0315 H   0  0  0  0  0  0  0  0  0  0  0  0
  -21.0330   66.1208   29.9791 H   0  0  0  0  0  0  0  0  0  0  0  0
  -22.4321   67.1934   29.3878 H   0  0  0  0  0  0  0  0  0  0  0  0
  -19.7349   68.3633   29.9104 H   0  0  0  0  0  0  0  0  0  0  0  0
  -20.1156   67.4788   28.3588 H   0  0  0  0  0  0  0  0  0  0  0  0
  -24.0115   70.3846   28.2130 H   0  0  0  0  0  0  0  0  0  0  0  0
  -22.4712   70.9268   27.4503 H   0  0  0  0  0  0  0  0  0  0  0  0
  -23.3714   68.5708   26.0701 H   0  0  0  0  0  0  0  0  0  0  0  0
  -24.7630   69.7589   26.2289 H   0  0  0  0  0  0  0  0  0  0  0  0
  -21.7758   71.9754   24.9365 H   0  0  0  0  0  0  0  0  0  0  0  0
  -21.5701   70.8300   26.3464 H   0  0  0  0  0  0  0  0  0  0  0  0
  -19.7450   70.6216   24.7000 H   0  0  0  0  0  0  0  0  0  0  0  0
  -20.7541   69.1085   24.8711 H   0  0  0  0  0  0  0  0  0  0  0  0
  -22.5859   71.2447   22.5716 H   0  0  0  0  0  0  0  0  0  0  0  0
  -22.4706   69.5874   21.8277 H   0  0  0  0  0  0  0  0  0  0  0  0
  -24.2850   69.6380   23.4575 H   0  0  0  0  0  0  0  0  0  0  0  0
  -22.9268   68.5899   24.0425 H   0  0  0  0  0  0  0  0  0  0  0  0
  -20.5513   70.9222   32.1204 H   0  0  0  0  0  0  0  0  0  0  0  0
  1  2  1  0
  2  3  2  0
  3  4  1  0
  4  5  1  0
  5  6  1  0
  6  7  2  0
  6  8  1  0
  8  9  2  0
  9 10  1  0
 10 11  2  0
 11 12  1  0
 12 13  1  0
 10 14  1  0
 14 15  1  0
 15 16  2  0
 16 17  1  0
 16 18  1  0
 18 19  1  0
 19 20  1  0
 20 21  2  0
 20 22  1  0
 22 23  1  0
 23 24  1  0
 24 25  1  0
 25 26  1  0
 26 27  1  0
 27 28  1  0
 28 29  1  0
 29 30  1  0
  9 31  1  0
 11  2  1  0
  8  3  1  0
 30 25  1  0
  1 32  1  0
  1 33  1  0
  1 34  1  0
  4 35  1  0
  4 36  1  0
 13 37  1  0
 13 38  1  0
 13 39  1  0
 14 40  1  0
 14 41  1  0
 15 42  1  0
 17 43  1  0
 17 44  1  0
 17 45  1  0
 18 46  1  0
 18 47  1  0
 19 48  1  0
 19 49  1  0
 23 50  1  0
 23 51  1  0
 24 52  1  0
 24 53  1  0
 26 54  1  0
 26 55  1  0
 27 56  1  0
 27 57  1  0
 29 58  1  0
 29 59  1  0
 30 60  1  0
 30 61  1  0
 31 62  1  0
M  END
