
     RDKit          3D

 50 50  0  0  0  0  0  0  0  0999 V2000
   -5.1780   -3.9410   12.4880 C   0  0  0  0  0  0  0  0  0  0  0  0
   -5.4370   -2.6780   13.2930 C   0  0  0  0  0  0  0  0  0  0  0  0
   -5.4380   -1.3950   12.4460 C   0  0  0  0  0  0  0  0  0  0  0  0
   -6.8060   -0.6960   12.3600 C   0  0  0  0  0  0  0  0  0  0  0  0
   -7.9470   -1.4550   13.0260 C   0  0  0  0  0  0  0  0  0  0  0  0
   -4.5200   -0.4480   13.0140 O   0  0  0  0  0  0  0  0  0  0  0  0
   -3.1980   -0.9620   13.2410 C   0  0  2  0  0  0  0  0  0  0  0  0
   -2.7710   -0.3610   14.5510 C   0  0  0  0  0  0  0  0  0  0  0  0
   -2.2570    0.8800   14.6160 C   0  0  0  0  0  0  0  0  0  0  0  0
   -2.0890    1.6630   13.3430 C   0  0  0  0  0  0  0  0  0  0  0  0
   -1.5210    0.7850   12.2160 C   0  0  2  0  0  0  0  0  0  0  0  0
   -2.2620   -0.5900   12.0480 C   0  0  1  0  0  0  0  0  0  0  0  0
   -1.2630   -1.6370   11.7720 N   0  0  0  0  0  0  0  0  0  0  0  0
   -1.4520   -2.6450   10.8650 C   0  0  0  0  0  0  0  0  0  0  0  0
   -2.5120   -2.8390   10.2790 O   0  0  0  0  0  0  0  0  0  0  0  0
   -0.2430   -3.5120   10.6380 C   0  0  0  0  0  0  0  0  0  0  0  0
   -0.0470    0.5940   12.3960 N   0  0  0  0  0  0  0  0  0  0  0  0
   -1.8420    1.5310   15.8860 C   0  0  0  0  0  0  0  0  0  0  0  0
   -1.1810    0.9620   16.7400 O   0  0  0  0  0  0  0  0  0  0  0  0
   -2.3070    2.8030   15.9620 O   0  0  0  0  0  0  0  0  0  0  0  0
   -3.5280    2.9800   16.6930 C   0  0  0  0  0  0  0  0  0  0  0  0
   -4.5640    3.6630   15.8200 C   0  0  0  0  0  0  0  0  0  0  0  0
   -5.0052   -4.7837   13.1735 H   0  0  0  0  0  0  0  0  0  0  0  0
   -6.0505   -4.1571   11.8540 H   0  0  0  0  0  0  0  0  0  0  0  0
   -4.2909   -3.7962   11.8540 H   0  0  0  0  0  0  0  0  0  0  0  0
   -6.4181   -2.7725   13.7814 H   0  0  0  0  0  0  0  0  0  0  0  0
   -4.6148   -2.5843   14.0177 H   0  0  0  0  0  0  0  0  0  0  0  0
   -5.1543   -1.7129   11.4319 H   0  0  0  0  0  0  0  0  0  0  0  0
   -6.7198    0.2882   12.8436 H   0  0  0  0  0  0  0  0  0  0  0  0
   -7.0566   -0.6299   11.2910 H   0  0  0  0  0  0  0  0  0  0  0  0
   -7.8441   -1.3866   14.1190 H   0  0  0  0  0  0  0  0  0  0  0  0
   -8.9077   -1.0154   12.7199 H   0  0  0  0  0  0  0  0  0  0  0  0
   -7.9129   -2.5110   12.7199 H   0  0  0  0  0  0  0  0  0  0  0  0
   -3.1575   -2.0598   13.2968 H   0  0  0  0  0  0  0  0  0  0  0  0
   -2.8812   -0.9479   15.4748 H   0  0  0  0  0  0  0  0  0  0  0  0
   -3.0685    2.0553   13.0321 H   0  0  0  0  0  0  0  0  0  0  0  0
   -1.3821    2.4843   13.5321 H   0  0  0  0  0  0  0  0  0  0  0  0
   -1.7014    1.3283   11.2767 H   0  0  0  0  0  0  0  0  0  0  0  0
   -2.9493   -0.4980   11.1941 H   0  0  0  0  0  0  0  0  0  0  0  0
   -0.3732   -1.6091   12.2900 H   0  0  0  0  0  0  0  0  0  0  0  0
    0.1787   -3.8144   11.6079 H   0  0  0  0  0  0  0  0  0  0  0  0
   -0.5354   -4.4075   10.0701 H   0  0  0  0  0  0  0  0  0  0  0  0
    0.5114   -2.9478   10.0701 H   0  0  0  0  0  0  0  0  0  0  0  0
    0.1752    0.5652   13.4013 H   0  0  0  0  0  0  0  0  0  0  0  0
    0.2408   -0.2913   11.9553 H   0  0  0  0  0  0  0  0  0  0  0  0
   -3.9088    1.9975   17.0085 H   0  0  0  0  0  0  0  0  0  0  0  0
   -3.3316    3.6064   17.5757 H   0  0  0  0  0  0  0  0  0  0  0  0
   -5.3126    4.1565   16.4572 H   0  0  0  0  0  0  0  0  0  0  0  0
   -4.0709    4.4137   15.1849 H   0  0  0  0  0  0  0  0  0  0  0  0
   -5.0596    2.9140   15.1849 H   0  0  0  0  0  0  0  0  0  0  0  0
  1  2  1  0
  2  3  1  0
  3  4  1  0
  4  5  1  0
  3  6  1  0
  6  7  1  0
  7  8  1  0
  8  9  2  0
  9 10  1  0
 10 11  1  0
 11 12  1  0
 12 13  1  0
 13 14  1  0
 14 15  2  0
 14 16  1  0
 11 17  1  0
  9 18  1  0
 18 19  2  0
 18 20  1  0
 20 21  1  0
 21 22  1  0
 12  7  1  0
  1 23  1  0
  1 24  1  0
  1 25  1  0
  2 26  1  0
  2 27  1  0
  3 28  1  0
  4 29  1  0
  4 30  1  0
  5 31  1  0
  5 32  1  0
  5 33  1  0
  7 34  1  1
  8 35  1  0
 10 36  1  0
 10 37  1  0
 11 38  1  1
 12 39  1  6
 13 40  1  0
 16 41  1  0
 16 42  1  0
 16 43  1  0
 17 44  1  0
 17 45  1  0
 21 46  1  0
 21 47  1  0
 22 48  1  0
 22 49  1  0
 22 50  1  0
M  END
