
     RDKit          3D

 55 57  0  0  0  0  0  0  0  0999 V2000
   -0.6840    1.3970   16.6080 C   0  0  0  0  0  0  0  0  0  0  0  0
   -1.9370    1.6160   15.8860 N   0  0  0  0  0  0  0  0  0  0  0  0
   -2.6150    0.3860   15.4230 C   0  0  0  0  0  0  0  0  0  0  0  0
   -2.1480   -0.0700   14.0550 C   0  0  0  0  0  0  0  0  0  0  0  0
   -1.7140    0.8380   13.1080 C   0  0  0  0  0  0  0  0  0  0  0  0
   -1.3000    0.4710   11.8710 N   0  0  0  0  0  0  0  0  0  0  0  0
   -1.3220   -0.8300   11.5600 C   0  0  0  0  0  0  0  0  0  0  0  0
   -1.7580   -1.7560   12.5140 C   0  0  0  0  0  0  0  0  0  0  0  0
   -2.1850   -1.3930   13.7630 N   0  0  0  0  0  0  0  0  0  0  0  0
   -1.7270   -3.0730   12.0620 C   0  0  0  0  0  0  0  0  0  0  0  0
   -1.3220   -3.4390   10.8370 N   0  0  0  0  0  0  0  0  0  0  0  0
   -0.9520   -2.4590   10.0180 C   0  0  0  0  0  0  0  0  0  0  0  0
   -0.9240   -1.1720   10.3390 N   0  0  0  0  0  0  0  0  0  0  0  0
   -0.5320   -2.8110    8.7540 N   0  0  0  0  0  0  0  0  0  0  0  0
   -2.0600   -4.1330   12.9230 N   0  0  0  0  0  0  0  0  0  0  0  0
   -2.7450    2.6980   16.2410 C   0  0  0  0  0  0  0  0  0  0  0  0
   -2.6070    3.3870   17.4550 C   0  0  0  0  0  0  0  0  0  0  0  0
   -3.4370    4.4670   17.7930 C   0  0  0  0  0  0  0  0  0  0  0  0
   -4.4210    4.9000   16.9030 C   0  0  0  0  0  0  0  0  0  0  0  0
   -4.5750    4.2330   15.6880 C   0  0  0  0  0  0  0  0  0  0  0  0
   -3.7420    3.1550   15.3630 C   0  0  0  0  0  0  0  0  0  0  0  0
   -5.3340    6.0370   17.2060 C   0  0  0  0  0  0  0  0  0  0  0  0
   -5.9020    6.6330   16.2970 O   0  0  0  0  0  0  0  0  0  0  0  0
   -5.4750    6.3850   18.5280 N   0  0  0  0  0  0  0  0  0  0  0  0
   -6.3230    7.5060   18.9480 C   0  0  1  0  0  0  0  0  0  0  0  0
   -7.0380    7.1660   20.2610 C   0  0  0  0  0  0  0  0  0  0  0  0
   -8.0770    6.0470   20.1390 C   0  0  0  0  0  0  0  0  0  0  0  0
   -7.5260    4.6540   19.9870 C   0  0  0  0  0  0  0  0  0  0  0  0
   -7.6230    3.9570   18.9880 O   0  0  0  0  0  0  0  0  0  0  0  0
   -6.8110    4.2250   21.0400 O   0  0  0  0  0  0  0  0  0  0  0  0
   -5.4030    8.7180   19.0720 C   0  0  0  0  0  0  0  0  0  0  0  0
   -5.7590    9.8850   19.1510 O   0  0  0  0  0  0  0  0  0  0  0  0
   -4.0980    8.3930   19.1040 O   0  0  0  0  0  0  0  0  0  0  0  0
   -0.8742    1.4302   17.6909 H   0  0  0  0  0  0  0  0  0  0  0  0
   -0.2724    0.4133   16.3380 H   0  0  0  0  0  0  0  0  0  0  0  0
    0.0369    2.1828   16.3380 H   0  0  0  0  0  0  0  0  0  0  0  0
   -2.4155   -0.4177   16.1471 H   0  0  0  0  0  0  0  0  0  0  0  0
   -3.6887    0.6122   15.3450 H   0  0  0  0  0  0  0  0  0  0  0  0
   -1.7042    1.9063   13.3700 H   0  0  0  0  0  0  0  0  0  0  0  0
   -0.2367   -2.0829    8.0880 H   0  0  0  0  0  0  0  0  0  0  0  0
   -0.5133   -3.8023    8.4750 H   0  0  0  0  0  0  0  0  0  0  0  0
   -2.0340   -5.1035   12.5790 H   0  0  0  0  0  0  0  0  0  0  0  0
   -2.3300   -3.9392   13.8979 H   0  0  0  0  0  0  0  0  0  0  0  0
   -1.8258    3.0718   18.1624 H   0  0  0  0  0  0  0  0  0  0  0  0
   -3.3117    4.9733   18.7615 H   0  0  0  0  0  0  0  0  0  0  0  0
   -5.3543    4.5550   14.9816 H   0  0  0  0  0  0  0  0  0  0  0  0
   -3.8720    2.6522   14.3933 H   0  0  0  0  0  0  0  0  0  0  0  0
   -4.9709    5.8433   19.2444 H   0  0  0  0  0  0  0  0  0  0  0  0
   -7.1203    7.7203   18.2211 H   0  0  0  0  0  0  0  0  0  0  0  0
   -6.2807    6.8549   20.9956 H   0  0  0  0  0  0  0  0  0  0  0  0
   -7.5829    8.0710   20.5676 H   0  0  0  0  0  0  0  0  0  0  0  0
   -8.7011    6.0660   21.0446 H   0  0  0  0  0  0  0  0  0  0  0  0
   -8.6293    6.2525   19.2101 H   0  0  0  0  0  0  0  0  0  0  0  0
   -6.4092    3.3203   21.0300 H   0  0  0  0  0  0  0  0  0  0  0  0
   -3.4128    9.1032   19.1828 H   0  0  0  0  0  0  0  0  0  0  0  0
  1  2  1  0
  2  3  1  0
  3  4  1  0
  4  5  2  0
  5  6  1  0
  6  7  2  0
  7  8  1  0
  8  9  2  0
  8 10  1  0
 10 11  2  0
 11 12  1  0
 12 13  2  0
 12 14  1  0
 10 15  1  0
  2 16  1  0
 16 17  2  0
 17 18  1  0
 18 19  2  0
 19 20  1  0
 20 21  2  0
 19 22  1  0
 22 23  2  0
 22 24  1  0
 24 25  1  0
 25 26  1  0
 26 27  1  0
 27 28  1  0
 28 29  2  0
 28 30  1  0
 25 31  1  0
 31 32  2  0
 31 33  1  0
  9  4  1  0
 13  7  1  0
 21 16  1  0
  1 34  1  0
  1 35  1  0
  1 36  1  0
  3 37  1  0
  3 38  1  0
  5 39  1  0
 14 40  1  0
 14 41  1  0
 15 42  1  0
 15 43  1  0
 17 44  1  0
 18 45  1  0
 20 46  1  0
 21 47  1  0
 24 48  1  0
 25 49  1  6
 26 50  1  0
 26 51  1  0
 27 52  1  0
 27 53  1  0
 30 54  1  0
 33 55  1  0
M  END
