
     RDKit          3D

 47 50  0  0  0  0  0  0  0  0999 V2000
 -109.5370   65.2770   38.5180 C   0  0  0  0  0  0  0  0  0  0  0  0
 -108.9750   66.5020   39.2380 C   0  0  0  0  0  0  0  0  0  0  0  0
 -109.9610   67.0710   40.2530 C   0  0  0  0  0  0  0  0  0  0  0  0
 -111.3010   67.4920   39.6120 C   0  0  0  0  0  0  0  0  0  0  0  0
 -111.5460   66.7860   38.2620 C   0  0  0  0  0  0  0  0  0  0  0  0
 -111.0470   65.3470   38.2910 C   0  0  0  0  0  0  0  0  0  0  0  0
 -111.3890   69.0170   39.4680 C   0  0  0  0  0  0  0  0  0  0  0  0
 -110.8500   69.5950   38.5220 O   0  0  0  0  0  0  0  0  0  0  0  0
 -112.0640   69.7350   40.4500 N   0  0  0  0  0  0  0  0  0  0  0  0
 -113.0080   69.1690   41.4130 C   0  0  0  0  0  0  0  0  0  0  0  0
 -112.9710   69.9410   42.7480 C   0  0  0  0  0  0  0  0  0  0  0  0
 -113.8830   69.3740   43.8390 C   0  0  0  0  0  0  0  0  0  0  0  0
 -114.3920   68.0660   43.8280 C   0  0  0  0  0  0  0  0  0  0  0  0
 -115.1620   67.5860   44.8920 C   0  0  0  0  0  0  0  0  0  0  0  0
 -115.4230   68.3980   45.9930 C   0  0  0  0  0  0  0  0  0  0  0  0
 -114.9220   69.6940   46.0300 C   0  0  0  0  0  0  0  0  0  0  0  0
 -114.1650   70.1850   44.9600 C   0  0  0  0  0  0  0  0  0  0  0  0
 -113.6190   71.5860   44.9820 C   0  0  0  0  0  0  0  0  0  0  0  0
 -113.7610   72.2030   43.5950 C   0  0  0  0  0  0  0  0  0  0  0  0
 -113.1820   71.3880   42.5270 N   0  0  0  0  0  0  0  0  0  0  0  0
 -112.7630   72.0300   41.3700 C   0  0  0  0  0  0  0  0  0  0  0  0
 -112.8770   73.2490   41.2220 O   0  0  0  0  0  0  0  0  0  0  0  0
 -112.1840   71.1740   40.2340 C   0  0  0  0  0  0  0  0  0  0  0  0
 -109.0409   65.1890   37.5401 H   0  0  0  0  0  0  0  0  0  0  0  0
 -109.3450   64.4054   39.1610 H   0  0  0  0  0  0  0  0  0  0  0  0
 -108.0523   66.2132   39.7627 H   0  0  0  0  0  0  0  0  0  0  0  0
 -108.7779   67.2783   38.4840 H   0  0  0  0  0  0  0  0  0  0  0  0
 -110.1616   66.3047   41.0163 H   0  0  0  0  0  0  0  0  0  0  0  0
 -109.5048   67.9715   40.6900 H   0  0  0  0  0  0  0  0  0  0  0  0
 -112.1022   67.1678   40.2925 H   0  0  0  0  0  0  0  0  0  0  0  0
 -112.6250   66.7868   38.0479 H   0  0  0  0  0  0  0  0  0  0  0  0
 -110.9937   67.3292   37.4810 H   0  0  0  0  0  0  0  0  0  0  0  0
 -111.5552   64.8097   39.1053 H   0  0  0  0  0  0  0  0  0  0  0  0
 -111.2691   64.8872   37.3167 H   0  0  0  0  0  0  0  0  0  0  0  0
 -114.0239   69.2237   40.9946 H   0  0  0  0  0  0  0  0  0  0  0  0
 -112.7247   68.1238   41.6063 H   0  0  0  0  0  0  0  0  0  0  0  0
 -111.9571   69.7979   43.1499 H   0  0  0  0  0  0  0  0  0  0  0  0
 -114.1823   67.4095   42.9706 H   0  0  0  0  0  0  0  0  0  0  0  0
 -115.5634   66.5624   44.8592 H   0  0  0  0  0  0  0  0  0  0  0  0
 -116.0239   68.0148   46.8309 H   0  0  0  0  0  0  0  0  0  0  0  0
 -115.1208   70.3348   46.9017 H   0  0  0  0  0  0  0  0  0  0  0  0
 -114.1807   72.1880   45.7114 H   0  0  0  0  0  0  0  0  0  0  0  0
 -112.5573   71.5637   45.2689 H   0  0  0  0  0  0  0  0  0  0  0  0
 -114.8317   72.3416   43.3845 H   0  0  0  0  0  0  0  0  0  0  0  0
 -113.2094   73.1546   43.6084 H   0  0  0  0  0  0  0  0  0  0  0  0
 -112.8282   71.3197   39.3543 H   0  0  0  0  0  0  0  0  0  0  0  0
 -111.1459   71.5227   40.1303 H   0  0  0  0  0  0  0  0  0  0  0  0
  1  2  1  0
  2  3  1  0
  3  4  1  0
  4  5  1  0
  5  6  1  0
  4  7  1  0
  7  8  2  0
  7  9  1  0
  9 10  1  0
 10 11  1  0
 11 12  1  0
 12 13  2  0
 13 14  1  0
 14 15  2  0
 15 16  1  0
 16 17  2  0
 17 18  1  0
 18 19  1  0
 19 20  1  0
 20 21  1  0
 21 22  2  0
 21 23  1  0
  6  1  1  0
 23  9  1  0
 20 11  1  0
 17 12  1  0
  1 24  1  0
  1 25  1  0
  2 26  1  0
  2 27  1  0
  3 28  1  0
  3 29  1  0
  4 30  1  0
  5 31  1  0
  5 32  1  0
  6 33  1  0
  6 34  1  0
 10 35  1  0
 10 36  1  0
 11 37  1  0
 13 38  1  0
 14 39  1  0
 15 40  1  0
 16 41  1  0
 18 42  1  0
 18 43  1  0
 19 44  1  0
 19 45  1  0
 23 46  1  0
 23 47  1  0
M  END
