
     RDKit          3D

 33 34  0  0  0  0  0  0  0  0999 V2000
 -111.2130   70.7040   27.9220 C   0  0  0  0  0  0  0  0  0  0  0  0
 -112.1360   71.5090   28.8270 C   0  0  0  0  0  0  0  0  0  0  0  0
 -113.4200   70.7720   29.2120 C   0  0  0  0  0  0  0  0  0  0  0  0
 -114.1680   69.9070   27.7890 S   0  0  0  0  0  0  0  0  0  0  0  0
 -114.1940   68.2440   28.4420 C   0  0  0  0  0  0  0  0  0  0  0  0
 -113.2190   67.8660   29.3760 C   0  0  0  0  0  0  0  0  0  0  0  0
 -113.2470   66.5610   29.8880 C   0  0  0  0  0  0  0  0  0  0  0  0
 -114.2420   65.6850   29.4670 C   0  0  0  0  0  0  0  0  0  0  0  0
 -115.2330   66.0320   28.5500 C   0  0  0  0  0  0  0  0  0  0  0  0
 -115.1880   67.3390   28.0460 C   0  0  0  0  0  0  0  0  0  0  0  0
 -113.9780   64.5280   30.1520 N   0  0  0  0  0  0  0  0  0  0  0  0
 -112.8720   64.7350   30.9350 C   0  0  0  0  0  0  0  0  0  0  0  0
 -112.4090   65.9550   30.7950 N   0  0  0  0  0  0  0  0  0  0  0  0
 -112.3250   63.7890   31.7580 N   0  0  0  0  0  0  0  0  0  0  0  0
 -112.8270   62.5290   31.8840 C   0  0  0  0  0  0  0  0  0  0  0  0
 -113.8050   62.0800   31.2980 O   0  0  0  0  0  0  0  0  0  0  0  0
 -112.0690   61.8330   32.7700 O   0  0  0  0  0  0  0  0  0  0  0  0
 -111.5740   60.5900   32.2690 C   0  0  0  0  0  0  0  0  0  0  0  0
 -110.5263   70.1051   28.5382 H   0  0  0  0  0  0  0  0  0  0  0  0
 -111.8133   70.0358   27.2871 H   0  0  0  0  0  0  0  0  0  0  0  0
 -110.6327   71.3896   27.2871 H   0  0  0  0  0  0  0  0  0  0  0  0
 -111.5887   71.7566   29.7485 H   0  0  0  0  0  0  0  0  0  0  0  0
 -112.4372   72.4039   28.2628 H   0  0  0  0  0  0  0  0  0  0  0  0
 -113.1846   70.0333   29.9924 H   0  0  0  0  0  0  0  0  0  0  0  0
 -114.1433   71.5177   29.5736 H   0  0  0  0  0  0  0  0  0  0  0  0
 -112.4472   68.5793   29.7007 H   0  0  0  0  0  0  0  0  0  0  0  0
 -116.0093   65.3177   28.2384 H   0  0  0  0  0  0  0  0  0  0  0  0
 -115.9510   67.6621   27.3225 H   0  0  0  0  0  0  0  0  0  0  0  0
 -111.5918   66.3704   31.2645 H   0  0  0  0  0  0  0  0  0  0  0  0
 -111.4927   64.0419   32.3095 H   0  0  0  0  0  0  0  0  0  0  0  0
 -111.3124   59.9331   33.1117 H   0  0  0  0  0  0  0  0  0  0  0  0
 -112.3486   60.1076   31.6548 H   0  0  0  0  0  0  0  0  0  0  0  0
 -110.6798   60.7722   31.6548 H   0  0  0  0  0  0  0  0  0  0  0  0
  1  2  1  0
  2  3  1  0
  3  4  1  0
  4  5  1  0
  5  6  2  0
  6  7  1  0
  7  8  2  0
  8  9  1  0
  9 10  2  0
  8 11  1  0
 11 12  2  0
 12 13  1  0
 12 14  1  0
 14 15  1  0
 15 16  2  0
 15 17  1  0
 17 18  1  0
 10  5  1  0
 13  7  1  0
  1 19  1  0
  1 20  1  0
  1 21  1  0
  2 22  1  0
  2 23  1  0
  3 24  1  0
  3 25  1  0
  6 26  1  0
  9 27  1  0
 10 28  1  0
 13 29  1  0
 14 30  1  0
 18 31  1  0
 18 32  1  0
 18 33  1  0
M  END
