
     RDKit          3D

 56 59  0  0  0  0  0  0  0  0999 V2000
   -2.2040   76.1580   20.4790 C   0  0  0  0  0  0  0  0  0  0  0  0
   -3.0690   75.2550   19.5820 C   0  0  2  0  0  0  0  0  0  0  0  0
   -2.9710   75.7090   18.1050 C   0  0  1  0  0  0  0  0  0  0  0  0
   -3.2580   74.6120   17.0580 C   0  0  1  0  0  0  0  0  0  0  0  0
   -2.9960   75.1340   15.6000 C   0  0  1  0  0  0  0  0  0  0  0  0
   -3.4090   74.0250   14.5860 C   0  0  1  0  0  0  0  0  0  0  0  0
   -4.9380   73.9180   14.6760 C   0  0  0  0  0  0  0  0  0  0  0  0
   -5.4970   72.8300   14.8440 O   0  0  0  0  0  0  0  0  0  0  0  0
   -5.7380   75.1700   14.5360 C   0  0  0  0  0  0  0  0  0  0  0  0
   -5.1270   76.3500   14.7820 C   0  0  0  0  0  0  0  0  0  0  0  0
   -3.6910   76.4860   15.2670 C   0  0  1  0  0  0  0  0  0  0  0  0
   -3.6440   77.4490   16.4860 C   0  0  0  0  0  0  0  0  0  0  0  0
   -3.3360   78.6360   16.4130 O   0  0  0  0  0  0  0  0  0  0  0  0
   -3.9300   76.8080   17.7900 C   0  0  0  0  0  0  0  0  0  0  0  0
   -5.0620   77.0570   18.4620 C   0  0  0  0  0  0  0  0  0  0  0  0
   -5.4420   76.1940   19.6100 C   0  0  0  0  0  0  0  0  0  0  0  0
   -4.4950   75.2720   20.1110 C   0  0  0  0  0  0  0  0  0  0  0  0
   -4.8410   74.4050   21.1640 C   0  0  0  0  0  0  0  0  0  0  0  0
   -6.1150   74.4450   21.7250 C   0  0  0  0  0  0  0  0  0  0  0  0
   -7.0540   75.3550   21.2510 C   0  0  0  0  0  0  0  0  0  0  0  0
   -6.7170   76.2180   20.2070 C   0  0  0  0  0  0  0  0  0  0  0  0
   -7.6590   77.1100   19.7540 O   0  0  0  0  0  0  0  0  0  0  0  0
   -5.9600   78.0000   18.0160 O   0  0  0  0  0  0  0  0  0  0  0  0
   -2.9650   77.1310   14.2120 O   0  0  0  0  0  0  0  0  0  0  0  0
   -5.7540   77.5790   14.5810 O   0  0  0  0  0  0  0  0  0  0  0  0
   -7.1660   75.1500   14.1090 C   0  0  0  0  0  0  0  0  0  0  0  0
   -7.9760   75.9900   14.4960 O   0  0  0  0  0  0  0  0  0  0  0  0
   -7.5490   74.1510   13.2730 N   0  0  0  0  0  0  0  0  0  0  0  0
   -3.0230   74.2140   13.1590 N   0  0  0  0  0  0  0  0  0  0  0  0
   -3.6130   73.1790   12.2970 C   0  0  0  0  0  0  0  0  0  0  0  0
   -1.5650   74.1860   12.9820 C   0  0  0  0  0  0  0  0  0  0  0  0
   -2.3940   73.4960   17.2800 O   0  0  0  0  0  0  0  0  0  0  0  0
   -2.4161   75.9366   21.5354 H   0  0  0  0  0  0  0  0  0  0  0  0
   -1.1402   75.9701   20.2714 H   0  0  0  0  0  0  0  0  0  0  0  0
   -2.4374   77.2127   20.2714 H   0  0  0  0  0  0  0  0  0  0  0  0
   -2.7055   74.2171   19.6091 H   0  0  0  0  0  0  0  0  0  0  0  0
   -1.9199   76.0243   18.0290 H   0  0  0  0  0  0  0  0  0  0  0  0
   -4.3142   74.3230   17.1623 H   0  0  0  0  0  0  0  0  0  0  0  0
   -1.9200   75.3486   15.5220 H   0  0  0  0  0  0  0  0  0  0  0  0
   -2.8542   73.1211   14.8779 H   0  0  0  0  0  0  0  0  0  0  0  0
   -4.0987   73.6894   21.5473 H   0  0  0  0  0  0  0  0  0  0  0  0
   -6.3784   73.7575   22.5423 H   0  0  0  0  0  0  0  0  0  0  0  0
   -8.0586   75.3944   21.6973 H   0  0  0  0  0  0  0  0  0  0  0  0
   -7.4383   77.7300   19.0144 H   0  0  0  0  0  0  0  0  0  0  0  0
   -6.7917   78.1713   18.5250 H   0  0  0  0  0  0  0  0  0  0  0  0
   -2.2845   77.7355   14.6013 H   0  0  0  0  0  0  0  0  0  0  0  0
   -5.2686   78.4199   14.7744 H   0  0  0  0  0  0  0  0  0  0  0  0
   -8.5256   74.0953   12.9505 H   0  0  0  0  0  0  0  0  0  0  0  0
   -6.8629   73.4488   12.9613 H   0  0  0  0  0  0  0  0  0  0  0  0
   -4.0612   72.3928   12.9223 H   0  0  0  0  0  0  0  0  0  0  0  0
   -4.3899   73.6298   11.6620 H   0  0  0  0  0  0  0  0  0  0  0  0
   -2.8293   72.7402   11.6620 H   0  0  0  0  0  0  0  0  0  0  0  0
   -1.0761   74.1766   13.9674 H   0  0  0  0  0  0  0  0  0  0  0  0
   -1.2808   73.2822   12.4231 H   0  0  0  0  0  0  0  0  0  0  0  0
   -1.2463   75.0782   12.4231 H   0  0  0  0  0  0  0  0  0  0  0  0
   -2.2832   73.3529   18.2533 H   0  0  0  0  0  0  0  0  0  0  0  0
  1  2  1  0
  2  3  1  0
  3  4  1  0
  4  5  1  0
  5  6  1  0
  6  7  1  0
  7  8  2  0
  7  9  1  0
  9 10  2  0
 10 11  1  0
 11 12  1  0
 12 13  2  0
 12 14  1  0
 14 15  2  0
 15 16  1  0
 16 17  2  0
 17 18  1  0
 18 19  2  0
 19 20  1  0
 20 21  2  0
 21 22  1  0
 15 23  1  0
 11 24  1  6
 10 25  1  0
  9 26  1  0
 26 27  2  0
 26 28  1  0
  6 29  1  0
 29 30  1  0
 29 31  1  0
  4 32  1  0
 17  2  1  0
 14  3  1  0
 11  5  1  0
 21 16  1  0
  1 33  1  0
  1 34  1  0
  1 35  1  0
  2 36  1  6
  3 37  1  6
  4 38  1  6
  5 39  1  1
  6 40  1  1
 18 41  1  0
 19 42  1  0
 20 43  1  0
 22 44  1  0
 23 45  1  0
 24 46  1  0
 25 47  1  0
 28 48  1  0
 28 49  1  0
 30 50  1  0
 30 51  1  0
 30 52  1  0
 31 53  1  0
 31 54  1  0
 31 55  1  0
 32 56  1  0
M  END
