
     RDKit          3D

 56 59  0  0  0  0  0  0  0  0999 V2000
   -3.2410   -5.1450   10.3080 C   0  0  0  0  0  0  0  0  0  0  0  0
   -4.7250   -4.8350   10.0420 C   0  0  2  0  0  0  0  0  0  0  0  0
   -5.1390   -3.5240   10.7540 C   0  0  1  0  0  0  0  0  0  0  0  0
   -6.3400   -2.7850   10.1270 C   0  0  1  0  0  0  0  0  0  0  0  0
   -6.5900   -1.4040   10.8330 C   0  0  1  0  0  0  0  0  0  0  0  0
   -7.8760   -0.7580   10.2370 C   0  0  1  0  0  0  0  0  0  0  0  0
   -9.0450   -1.6350   10.7060 C   0  0  0  0  0  0  0  0  0  0  0  0
   -9.8800   -2.0730    9.9090 O   0  0  0  0  0  0  0  0  0  0  0  0
   -9.1590   -1.9320   12.1650 C   0  0  0  0  0  0  0  0  0  0  0  0
   -8.0490   -1.8200   12.9280 C   0  0  0  0  0  0  0  0  0  0  0  0
   -6.6680   -1.4810   12.3860 C   0  0  1  0  0  0  0  0  0  0  0  0
   -5.6290   -2.4930   12.9440 C   0  0  0  0  0  0  0  0  0  0  0  0
   -4.8960   -2.2670   13.9040 O   0  0  0  0  0  0  0  0  0  0  0  0
   -5.5240   -3.7550   12.1770 C   0  0  0  0  0  0  0  0  0  0  0  0
   -5.9590   -4.9200   12.6770 C   0  0  0  0  0  0  0  0  0  0  0  0
   -6.0970   -6.0990   11.7830 C   0  0  0  0  0  0  0  0  0  0  0  0
   -5.5550   -6.0320   10.4800 C   0  0  0  0  0  0  0  0  0  0  0  0
   -5.7140   -7.1130    9.5920 C   0  0  0  0  0  0  0  0  0  0  0  0
   -6.4030   -8.2560    9.9850 C   0  0  0  0  0  0  0  0  0  0  0  0
   -6.9320   -8.3420   11.2690 C   0  0  0  0  0  0  0  0  0  0  0  0
   -6.7770   -7.2740   12.1550 C   0  0  0  0  0  0  0  0  0  0  0  0
   -7.3060   -7.3800   13.4190 O   0  0  0  0  0  0  0  0  0  0  0  0
   -6.4280   -5.0080   13.9680 O   0  0  0  0  0  0  0  0  0  0  0  0
   -6.3200   -0.2000   12.9300 O   0  0  0  0  0  0  0  0  0  0  0  0
   -8.0690   -1.9740   14.3130 O   0  0  0  0  0  0  0  0  0  0  0  0
  -10.4550   -2.3150   12.7940 C   0  0  0  0  0  0  0  0  0  0  0  0
  -11.0920   -3.3000   12.4270 O   0  0  0  0  0  0  0  0  0  0  0  0
  -10.9180   -1.5220   13.7920 N   0  0  0  0  0  0  0  0  0  0  0  0
   -8.1660    0.6600   10.5910 N   0  0  0  0  0  0  0  0  0  0  0  0
   -9.4210    0.7840   11.3480 C   0  0  0  0  0  0  0  0  0  0  0  0
   -8.2620    1.5100    9.3970 C   0  0  0  0  0  0  0  0  0  0  0  0
   -6.0790   -2.5240    8.7470 O   0  0  0  0  0  0  0  0  0  0  0  0
   -3.0629   -5.1822   11.3929 H   0  0  0  0  0  0  0  0  0  0  0  0
   -2.9834   -6.1163    9.8606 H   0  0  0  0  0  0  0  0  0  0  0  0
   -2.6161   -4.3580    9.8606 H   0  0  0  0  0  0  0  0  0  0  0  0
   -4.9011   -4.6699    8.9688 H   0  0  0  0  0  0  0  0  0  0  0  0
   -4.2333   -2.9083   10.6509 H   0  0  0  0  0  0  0  0  0  0  0  0
   -7.2243   -3.4279   10.2487 H   0  0  0  0  0  0  0  0  0  0  0  0
   -5.7114   -0.7740   10.6301 H   0  0  0  0  0  0  0  0  0  0  0  0
   -7.7223   -0.7175    9.1485 H   0  0  0  0  0  0  0  0  0  0  0  0
   -5.2898   -7.0533    8.5788 H   0  0  0  0  0  0  0  0  0  0  0  0
   -6.5295   -9.0915    9.2808 H   0  0  0  0  0  0  0  0  0  0  0  0
   -7.4702   -9.2478   11.5849 H   0  0  0  0  0  0  0  0  0  0  0  0
   -7.2064   -6.6334   14.0615 H   0  0  0  0  0  0  0  0  0  0  0  0
   -6.7455   -5.8767   14.3212 H   0  0  0  0  0  0  0  0  0  0  0  0
   -6.3327   -0.2469   13.9188 H   0  0  0  0  0  0  0  0  0  0  0  0
   -7.2316   -1.8835   14.8333 H   0  0  0  0  0  0  0  0  0  0  0  0
  -11.8093   -1.7466   14.2568 H   0  0  0  0  0  0  0  0  0  0  0  0
  -10.3784   -0.6951   14.0851 H   0  0  0  0  0  0  0  0  0  0  0  0
   -9.2027    0.7624   12.4259 H   0  0  0  0  0  0  0  0  0  0  0  0
   -9.9111    1.7349   11.0921 H   0  0  0  0  0  0  0  0  0  0  0  0
  -10.0877   -0.0526   11.0921 H   0  0  0  0  0  0  0  0  0  0  0  0
   -8.3806    2.5599    9.7029 H   0  0  0  0  0  0  0  0  0  0  0  0
   -7.3462    1.4041    8.7969 H   0  0  0  0  0  0  0  0  0  0  0  0
   -9.1311    1.2025    8.7969 H   0  0  0  0  0  0  0  0  0  0  0  0
   -5.3811   -1.8261    8.6694 H   0  0  0  0  0  0  0  0  0  0  0  0
  1  2  1  0
  2  3  1  0
  3  4  1  0
  4  5  1  0
  5  6  1  0
  6  7  1  0
  7  8  2  0
  7  9  1  0
  9 10  2  0
 10 11  1  0
 11 12  1  0
 12 13  2  0
 12 14  1  0
 14 15  2  0
 15 16  1  0
 16 17  2  0
 17 18  1  0
 18 19  2  0
 19 20  1  0
 20 21  2  0
 21 22  1  0
 15 23  1  0
 11 24  1  1
 10 25  1  0
  9 26  1  0
 26 27  2  0
 26 28  1  0
  6 29  1  0
 29 30  1  0
 29 31  1  0
  4 32  1  0
 17  2  1  0
 14  3  1  0
 11  5  1  0
 21 16  1  0
  1 33  1  0
  1 34  1  0
  1 35  1  0
  2 36  1  6
  3 37  1  1
  4 38  1  6
  5 39  1  1
  6 40  1  6
 18 41  1  0
 19 42  1  0
 20 43  1  0
 22 44  1  0
 23 45  1  0
 24 46  1  0
 25 47  1  0
 28 48  1  0
 28 49  1  0
 30 50  1  0
 30 51  1  0
 30 52  1  0
 31 53  1  0
 31 54  1  0
 31 55  1  0
 32 56  1  0
M  END
