
     RDKit          3D

 49 50  0  0  0  0  0  0  0  0999 V2000
 -124.5510   64.4930   30.3870 C   0  0  0  0  0  0  0  0  0  0  0  0
 -125.7730   63.5820   30.4650 C   0  0  0  0  0  0  0  0  0  0  0  0
 -125.4570   62.2900   31.1090 N   0  0  0  0  0  0  0  0  0  0  0  0
 -126.2200   62.1390   32.3670 C   0  0  0  0  0  0  0  0  0  0  0  0
 -127.7100   61.8830   32.0980 C   0  0  0  0  0  0  0  0  0  0  0  0
 -128.5910   62.7800   32.9800 C   0  0  0  0  0  0  0  0  0  0  0  0
 -129.1610   62.0340   34.1950 C   0  0  0  0  0  0  0  0  0  0  0  0
 -130.5450   61.4370   33.9470 C   0  0  0  0  0  0  0  0  0  0  0  0
 -129.1050   62.8080   35.4380 N   0  0  0  0  0  0  0  0  0  0  0  0
 -128.0770   63.6140   35.9310 C   0  0  0  0  0  0  0  0  0  0  0  0
 -128.3090   65.0120   36.1180 C   0  0  0  0  0  0  0  0  0  0  0  0
 -129.5400   65.6530   35.8330 C   0  0  0  0  0  0  0  0  0  0  0  0
 -129.7100   67.0250   36.0200 C   0  0  0  0  0  0  0  0  0  0  0  0
 -128.6510   67.7780   36.5030 C   0  0  0  0  0  0  0  0  0  0  0  0
 -127.4380   67.1680   36.8070 C   0  0  0  0  0  0  0  0  0  0  0  0
 -127.2520   65.8050   36.6320 C   0  0  0  0  0  0  0  0  0  0  0  0
 -126.0620   65.2990   36.9760 N   0  0  0  0  0  0  0  0  0  0  0  0
 -125.8870   63.9740   36.8400 C   0  0  0  0  0  0  0  0  0  0  0  0
 -126.8470   63.1100   36.3460 C   0  0  0  0  0  0  0  0  0  0  0  0
 -128.8430   69.4710   36.7380 Cl  0  0  0  0  0  0  0  0  0  0  0  0
 -125.7560   61.1650   30.1840 C   0  0  0  0  0  0  0  0  0  0  0  0
 -124.4870   60.6840   29.4620 C   0  0  0  0  0  0  0  0  0  0  0  0
 -124.3390   61.3900   28.2310 O   0  0  0  0  0  0  0  0  0  0  0  0
 -124.2149   64.7435   31.4040 H   0  0  0  0  0  0  0  0  0  0  0  0
 -123.7419   63.9760   29.8504 H   0  0  0  0  0  0  0  0  0  0  0  0
 -124.8155   65.4161   29.8504 H   0  0  0  0  0  0  0  0  0  0  0  0
 -126.5569   64.0876   31.0480 H   0  0  0  0  0  0  0  0  0  0  0  0
 -126.1118   63.3775   29.4386 H   0  0  0  0  0  0  0  0  0  0  0  0
 -125.8089   61.2908   32.9341 H   0  0  0  0  0  0  0  0  0  0  0  0
 -126.1296   63.0747   32.9383 H   0  0  0  0  0  0  0  0  0  0  0  0
 -127.9261   62.0948   31.0404 H   0  0  0  0  0  0  0  0  0  0  0  0
 -127.9330   60.8320   32.3341 H   0  0  0  0  0  0  0  0  0  0  0  0
 -127.9859   63.6261   33.3378 H   0  0  0  0  0  0  0  0  0  0  0  0
 -129.4399   63.1193   32.3682 H   0  0  0  0  0  0  0  0  0  0  0  0
 -128.4814   61.1811   34.3392 H   0  0  0  0  0  0  0  0  0  0  0  0
 -131.0318   61.2270   34.9108 H   0  0  0  0  0  0  0  0  0  0  0  0
 -131.1556   62.1517   33.3758 H   0  0  0  0  0  0  0  0  0  0  0  0
 -130.4442   60.5024   33.3758 H   0  0  0  0  0  0  0  0  0  0  0  0
 -129.9437   62.7490   36.0330 H   0  0  0  0  0  0  0  0  0  0  0  0
 -130.3820   65.0544   35.4552 H   0  0  0  0  0  0  0  0  0  0  0  0
 -130.6727   67.5035   35.7870 H   0  0  0  0  0  0  0  0  0  0  0  0
 -126.6096   67.7795   37.1941 H   0  0  0  0  0  0  0  0  0  0  0  0
 -124.9180   63.5492   37.1409 H   0  0  0  0  0  0  0  0  0  0  0  0
 -126.6404   62.0315   36.2813 H   0  0  0  0  0  0  0  0  0  0  0  0
 -126.1787   60.3293   30.7609 H   0  0  0  0  0  0  0  0  0  0  0  0
 -126.4732   61.5178   29.4282 H   0  0  0  0  0  0  0  0  0  0  0  0
 -123.6101   60.8716   30.0991 H   0  0  0  0  0  0  0  0  0  0  0  0
 -124.5700   59.6065   29.2570 H   0  0  0  0  0  0  0  0  0  0  0  0
 -124.1395   62.3415   28.4182 H   0  0  0  0  0  0  0  0  0  0  0  0
  1  2  1  0
  2  3  1  0
  3  4  1  0
  4  5  1  0
  5  6  1  0
  6  7  1  0
  7  8  1  0
  7  9  1  0
  9 10  1  0
 10 11  2  0
 11 12  1  0
 12 13  2  0
 13 14  1  0
 14 15  2  0
 15 16  1  0
 16 17  2  0
 17 18  1  0
 18 19  2  0
 14 20  1  0
  3 21  1  0
 21 22  1  0
 22 23  1  0
 19 10  1  0
 16 11  1  0
  1 24  1  0
  1 25  1  0
  1 26  1  0
  2 27  1  0
  2 28  1  0
  4 29  1  0
  4 30  1  0
  5 31  1  0
  5 32  1  0
  6 33  1  0
  6 34  1  0
  7 35  1  0
  8 36  1  0
  8 37  1  0
  8 38  1  0
  9 39  1  0
 12 40  1  0
 13 41  1  0
 15 42  1  0
 18 43  1  0
 19 44  1  0
 21 45  1  0
 21 46  1  0
 22 47  1  0
 22 48  1  0
 23 49  1  0
M  END
