
     RDKit          3D

 85 88  0  0  0  0  0  0  0  0999 V2000
   -5.1610   60.1550   29.4800 C   0  0  0  0  0  0  0  0  0  0  0  0
   -6.2300   61.1250   29.0620 C   0  0  0  0  0  0  0  0  0  0  0  0
   -5.9050   62.3740   28.4850 C   0  0  0  0  0  0  0  0  0  0  0  0
   -6.9010   63.3140   28.1810 C   0  0  0  0  0  0  0  0  0  0  0  0
   -8.2410   63.0090   28.4010 C   0  0  0  0  0  0  0  0  0  0  0  0
   -8.5840   61.7620   28.9170 C   0  0  0  0  0  0  0  0  0  0  0  0
   -7.5910   60.8330   29.2330 C   0  0  0  0  0  0  0  0  0  0  0  0
   -8.0420   59.6360   29.7150 O   0  0  0  0  0  0  0  0  0  0  0  0
   -4.5130   62.7680   28.1600 C   0  0  0  0  0  0  0  0  0  0  0  0
   -3.8230   63.3580   28.9830 O   0  0  0  0  0  0  0  0  0  0  0  0
   -4.1110   62.4800   26.8760 N   0  0  0  0  0  0  0  0  0  0  0  0
   -2.8190   62.9590   26.3490 C   0  0  1  0  0  0  0  0  0  0  0  0
   -1.9430   61.7570   25.9360 C   0  0  0  0  0  0  0  0  0  0  0  0
   -2.7800   60.1290   26.1400 S   0  0  0  0  0  0  0  0  0  0  0  0
   -3.0370   59.7080   24.4290 C   0  0  0  0  0  0  0  0  0  0  0  0
   -3.6130   60.6370   23.5570 C   0  0  0  0  0  0  0  0  0  0  0  0
   -3.8250   60.3060   22.2170 C   0  0  0  0  0  0  0  0  0  0  0  0
   -3.4660   59.0450   21.7450 C   0  0  0  0  0  0  0  0  0  0  0  0
   -2.8990   58.1120   22.6130 C   0  0  0  0  0  0  0  0  0  0  0  0
   -2.6920   58.4400   23.9530 C   0  0  0  0  0  0  0  0  0  0  0  0
   -3.0810   63.9580   25.1870 C   0  0  1  0  0  0  0  0  0  0  0  0
   -3.4200   65.4090   25.6140 C   0  0  0  0  0  0  0  0  0  0  0  0
   -4.1780   66.1780   24.6130 N   0  0  0  0  0  0  0  0  0  0  0  0
   -3.4220   67.3080   24.0550 C   0  0  0  0  0  0  0  0  0  0  0  0
   -3.7200   68.6490   24.7410 C   0  0  1  0  0  0  0  0  0  0  0  0
   -2.8170   69.7570   24.1730 C   0  0  0  0  0  0  0  0  0  0  0  0
   -3.3280   71.1370   24.5640 C   0  0  0  0  0  0  0  0  0  0  0  0
   -4.7250   71.4080   24.0070 C   0  0  0  0  0  0  0  0  0  0  0  0
   -5.5090   70.1390   23.6700 C   0  0  0  0  0  0  0  0  0  0  0  0
   -5.2250   69.0060   24.6610 C   0  0  1  0  0  0  0  0  0  0  0  0
   -6.0870   67.7750   24.3430 C   0  0  0  0  0  0  0  0  0  0  0  0
   -5.5440   66.5350   25.0670 C   0  0  1  0  0  0  0  0  0  0  0  0
   -6.5010   65.3390   24.8350 C   0  0  0  0  0  0  0  0  0  0  0  0
   -7.4390   65.0770   25.5860 O   0  0  0  0  0  0  0  0  0  0  0  0
   -6.2130   64.6090   23.6960 N   0  0  0  0  0  0  0  0  0  0  0  0
   -7.0050   63.4680   23.2080 C   0  0  0  0  0  0  0  0  0  0  0  0
   -6.9520   62.2930   24.1970 C   0  0  0  0  0  0  0  0  0  0  0  0
   -6.3940   63.0020   21.8740 C   0  0  0  0  0  0  0  0  0  0  0  0
   -8.4640   63.8850   22.9570 C   0  0  0  0  0  0  0  0  0  0  0  0
   -2.0080   63.9350   24.2360 O   0  0  0  0  0  0  0  0  0  0  0  0
   -5.1138   60.1122   30.5782 H   0  0  0  0  0  0  0  0  0  0  0  0
   -5.3969   59.1563   29.0839 H   0  0  0  0  0  0  0  0  0  0  0  0
   -4.1898   60.4865   29.0839 H   0  0  0  0  0  0  0  0  0  0  0  0
   -6.6222   64.2945   27.7677 H   0  0  0  0  0  0  0  0  0  0  0  0
   -9.0229   63.7472   28.1691 H   0  0  0  0  0  0  0  0  0  0  0  0
   -9.6423   61.5077   29.0764 H   0  0  0  0  0  0  0  0  0  0  0  0
   -7.3967   58.9267   29.9611 H   0  0  0  0  0  0  0  0  0  0  0  0
   -4.7253   61.9179   26.2697 H   0  0  0  0  0  0  0  0  0  0  0  0
   -2.2574   63.5017   27.1237 H   0  0  0  0  0  0  0  0  0  0  0  0
   -1.6665   61.8756   24.8779 H   0  0  0  0  0  0  0  0  0  0  0  0
   -1.0661   61.7540   26.6001 H   0  0  0  0  0  0  0  0  0  0  0  0
   -3.9001   61.6320   23.9278 H   0  0  0  0  0  0  0  0  0  0  0  0
   -4.2756   61.0410   21.5338 H   0  0  0  0  0  0  0  0  0  0  0  0
   -3.6297   58.7856   20.6886 H   0  0  0  0  0  0  0  0  0  0  0  0
   -2.6148   57.1167   22.2406 H   0  0  0  0  0  0  0  0  0  0  0  0
   -2.2556   57.6978   24.6376 H   0  0  0  0  0  0  0  0  0  0  0  0
   -4.0030   63.5916   24.7119 H   0  0  0  0  0  0  0  0  0  0  0  0
   -4.0162   65.3651   26.5374 H   0  0  0  0  0  0  0  0  0  0  0  0
   -2.4597   65.9288   25.7468 H   0  0  0  0  0  0  0  0  0  0  0  0
   -2.3483   67.0942   24.1621 H   0  0  0  0  0  0  0  0  0  0  0  0
   -3.7267   67.4104   23.0030 H   0  0  0  0  0  0  0  0  0  0  0  0
   -3.4850   68.5534   25.8113 H   0  0  0  0  0  0  0  0  0  0  0  0
   -1.7981   69.6267   24.5666 H   0  0  0  0  0  0  0  0  0  0  0  0
   -2.8210   69.6817   23.0756 H   0  0  0  0  0  0  0  0  0  0  0  0
   -3.3636   71.2050   25.6613 H   0  0  0  0  0  0  0  0  0  0  0  0
   -2.6421   71.8861   24.1416 H   0  0  0  0  0  0  0  0  0  0  0  0
   -5.2931   71.9785   24.7565 H   0  0  0  0  0  0  0  0  0  0  0  0
   -4.5941   71.9642   23.0671 H   0  0  0  0  0  0  0  0  0  0  0  0
   -6.5843   70.3696   23.6936 H   0  0  0  0  0  0  0  0  0  0  0  0
   -5.1949   69.8020   22.6711 H   0  0  0  0  0  0  0  0  0  0  0  0
   -5.5054   69.3700   25.6604 H   0  0  0  0  0  0  0  0  0  0  0  0
   -7.1200   67.9622   24.6714 H   0  0  0  0  0  0  0  0  0  0  0  0
   -6.0601   67.5932   23.2585 H   0  0  0  0  0  0  0  0  0  0  0  0
   -5.4857   66.7720   26.1396 H   0  0  0  0  0  0  0  0  0  0  0  0
   -5.3842   64.8836   23.1496 H   0  0  0  0  0  0  0  0  0  0  0  0
   -6.9694   62.6794   25.2267 H   0  0  0  0  0  0  0  0  0  0  0  0
   -7.8215   61.6388   24.0361 H   0  0  0  0  0  0  0  0  0  0  0  0
   -6.0271   61.7197   24.0361 H   0  0  0  0  0  0  0  0  0  0  0  0
   -5.5339   62.3460   22.0739 H   0  0  0  0  0  0  0  0  0  0  0  0
   -7.1504   62.4494   21.2974 H   0  0  0  0  0  0  0  0  0  0  0  0
   -6.0611   63.8776   21.2974 H   0  0  0  0  0  0  0  0  0  0  0  0
   -8.9746   64.0309   23.9204 H   0  0  0  0  0  0  0  0  0  0  0  0
   -8.4836   64.8247   22.3856 H   0  0  0  0  0  0  0  0  0  0  0  0
   -8.9773   63.0976   22.3856 H   0  0  0  0  0  0  0  0  0  0  0  0
   -1.1422   63.9164   24.7157 H   0  0  0  0  0  0  0  0  0  0  0  0
  1  2  1  0
  2  3  2  0
  3  4  1  0
  4  5  2  0
  5  6  1  0
  6  7  2  0
  7  8  1  0
  3  9  1  0
  9 10  2  0
  9 11  1  0
 11 12  1  0
 12 13  1  0
 13 14  1  0
 14 15  1  0
 15 16  2  0
 16 17  1  0
 17 18  2  0
 18 19  1  0
 19 20  2  0
 12 21  1  0
 21 22  1  0
 22 23  1  0
 23 24  1  0
 24 25  1  0
 25 26  1  0
 26 27  1  0
 27 28  1  0
 28 29  1  0
 29 30  1  0
 30 31  1  0
 31 32  1  0
 32 33  1  0
 33 34  2  0
 33 35  1  0
 35 36  1  0
 36 37  1  0
 36 38  1  0
 36 39  1  0
 21 40  1  0
  7  2  1  0
 20 15  1  0
 32 23  1  0
 30 25  1  0
  1 41  1  0
  1 42  1  0
  1 43  1  0
  4 44  1  0
  5 45  1  0
  6 46  1  0
  8 47  1  0
 11 48  1  0
 12 49  1  1
 13 50  1  0
 13 51  1  0
 16 52  1  0
 17 53  1  0
 18 54  1  0
 19 55  1  0
 20 56  1  0
 21 57  1  6
 22 58  1  0
 22 59  1  0
 24 60  1  0
 24 61  1  0
 25 62  1  1
 26 63  1  0
 26 64  1  0
 27 65  1  0
 27 66  1  0
 28 67  1  0
 28 68  1  0
 29 69  1  0
 29 70  1  0
 30 71  1  1
 31 72  1  0
 31 73  1  0
 32 74  1  1
 35 75  1  0
 37 76  1  0
 37 77  1  0
 37 78  1  0
 38 79  1  0
 38 80  1  0
 38 81  1  0
 39 82  1  0
 39 83  1  0
 39 84  1  0
 40 85  1  0
M  END
