
     RDKit          3D

 54 57  0  0  0  0  0  0  0  0999 V2000
   -6.5740   -1.2840   12.8620 C   0  0  0  0  0  0  0  0  0  0  0  0
   -7.6330   -2.1370   12.1160 C   0  0  2  0  0  0  0  0  0  0  0  0
   -7.8680   -3.4760   12.8480 C   0  0  0  0  0  0  0  0  0  0  0  0
   -6.6970   -4.4770   12.7290 C   0  0  1  0  0  0  0  0  0  0  0  0
   -6.1790   -4.6720   11.2700 C   0  0  1  0  0  0  0  0  0  0  0  0
   -5.9530   -3.3030   10.5380 C   0  0  2  0  0  0  0  0  0  0  0  0
   -7.2370   -2.4670   10.6590 C   0  0  2  0  0  0  0  0  0  0  0  0
   -7.3160   -1.1160    9.9560 C   0  0  0  0  0  0  0  0  0  0  0  0
   -8.5010   -0.3960   10.6360 C   0  0  0  0  0  0  0  0  0  0  0  0
   -8.9040   -1.2700   11.8470 C   0  0  2  0  0  0  0  0  0  0  0  0
   -9.4500   -0.5430   13.0870 C   0  0  0  0  0  0  0  0  0  0  0  0
   -9.3360    0.6890   13.1820 O   0  0  0  0  0  0  0  0  0  0  0  0
  -10.0900   -1.3390   14.2150 C   0  0  0  0  0  0  0  0  0  0  0  0
  -11.4260   -1.7090   13.8980 O   0  0  0  0  0  0  0  0  0  0  0  0
   -9.9860   -2.1090   11.3990 O   0  0  0  0  0  0  0  0  0  0  0  0
   -5.5930   -3.5170    9.0550 C   0  0  0  0  0  0  0  0  0  0  0  0
   -4.4210   -4.4740    8.8680 C   0  0  0  0  0  0  0  0  0  0  0  0
   -4.6930   -5.7730    9.5800 C   0  0  0  0  0  0  0  0  0  0  0  0
   -4.7290   -6.9310    8.8950 C   0  0  0  0  0  0  0  0  0  0  0  0
   -5.0490   -8.2150    9.5500 C   0  0  0  0  0  0  0  0  0  0  0  0
   -5.0700   -9.2640    8.9180 O   0  0  0  0  0  0  0  0  0  0  0  0
   -5.3520   -8.1810   10.9920 C   0  0  0  0  0  0  0  0  0  0  0  0
   -5.3150   -7.0290   11.6770 C   0  0  0  0  0  0  0  0  0  0  0  0
   -4.9690   -5.6670   11.0870 C   0  0  2  0  0  0  0  0  0  0  0  0
   -3.6630   -5.2170   11.7790 C   0  0  0  0  0  0  0  0  0  0  0  0
   -5.6780   -4.1200   13.6510 O   0  0  0  0  0  0  0  0  0  0  0  0
   -6.7121   -1.3953   13.9476 H   0  0  0  0  0  0  0  0  0  0  0  0
   -5.5660   -1.6254   12.5837 H   0  0  0  0  0  0  0  0  0  0  0  0
   -6.6928   -0.2264   12.5837 H   0  0  0  0  0  0  0  0  0  0  0  0
   -8.0318   -3.2620   13.9145 H   0  0  0  0  0  0  0  0  0  0  0  0
   -8.7382   -3.9492   12.3696 H   0  0  0  0  0  0  0  0  0  0  0  0
   -7.0731   -5.4751   12.9979 H   0  0  0  0  0  0  0  0  0  0  0  0
   -7.0056   -5.1954   10.7672 H   0  0  0  0  0  0  0  0  0  0  0  0
   -5.1107   -2.7750   11.0089 H   0  0  0  0  0  0  0  0  0  0  0  0
   -7.9073   -3.1730   10.1468 H   0  0  0  0  0  0  0  0  0  0  0  0
   -6.3839   -0.5492   10.0968 H   0  0  0  0  0  0  0  0  0  0  0  0
   -7.4552   -1.2169    8.8695 H   0  0  0  0  0  0  0  0  0  0  0  0
   -8.1950    0.6051   10.9740 H   0  0  0  0  0  0  0  0  0  0  0  0
   -9.3424   -0.2661    9.9395 H   0  0  0  0  0  0  0  0  0  0  0  0
   -9.4987   -2.2499   14.3901 H   0  0  0  0  0  0  0  0  0  0  0  0
  -10.1109   -0.7071   15.1151 H   0  0  0  0  0  0  0  0  0  0  0  0
  -11.9365   -1.8504   14.7343 H   0  0  0  0  0  0  0  0  0  0  0  0
  -10.4632   -2.4791   12.1835 H   0  0  0  0  0  0  0  0  0  0  0  0
   -6.4706   -3.9291    8.5354 H   0  0  0  0  0  0  0  0  0  0  0  0
   -5.2964   -2.5423    8.6403 H   0  0  0  0  0  0  0  0  0  0  0  0
   -4.2795   -4.6703    7.7949 H   0  0  0  0  0  0  0  0  0  0  0  0
   -3.5131   -4.0169    9.2885 H   0  0  0  0  0  0  0  0  0  0  0  0
   -4.5139   -6.9205    7.8163 H   0  0  0  0  0  0  0  0  0  0  0  0
   -5.6122   -9.1139   11.5136 H   0  0  0  0  0  0  0  0  0  0  0  0
   -5.5533   -7.0702   12.7501 H   0  0  0  0  0  0  0  0  0  0  0  0
   -3.7922   -5.2615   12.8705 H   0  0  0  0  0  0  0  0  0  0  0  0
   -2.8409   -5.8837   11.4796 H   0  0  0  0  0  0  0  0  0  0  0  0
   -3.4261   -4.1854   11.4796 H   0  0  0  0  0  0  0  0  0  0  0  0
   -6.0132   -4.2374   14.5751 H   0  0  0  0  0  0  0  0  0  0  0  0
  2  1  1  1
  2  3  1  0
  3  4  1  0
  4  5  1  0
  5  6  1  0
  6  7  1  0
  7  8  1  0
  8  9  1  0
  9 10  1  0
 10 11  1  0
 11 12  2  0
 11 13  1  0
 13 14  1  0
 10 15  1  6
  6 16  1  0
 16 17  1  0
 17 18  1  0
 18 19  2  0
 19 20  1  0
 20 21  2  0
 20 22  1  0
 22 23  2  0
 23 24  1  0
 24 25  1  1
  4 26  1  0
  7  2  1  0
 10  2  1  0
 24  5  1  0
 24 18  1  0
  1 27  1  0
  1 28  1  0
  1 29  1  0
  3 30  1  0
  3 31  1  0
  4 32  1  1
  5 33  1  6
  6 34  1  1
  7 35  1  6
  8 36  1  0
  8 37  1  0
  9 38  1  0
  9 39  1  0
 13 40  1  0
 13 41  1  0
 14 42  1  0
 15 43  1  0
 16 44  1  0
 16 45  1  0
 17 46  1  0
 17 47  1  0
 19 48  1  0
 22 49  1  0
 23 50  1  0
 25 51  1  0
 25 52  1  0
 25 53  1  0
 26 54  1  0
M  END
