
     RDKit          3D

 32 34  0  0  0  0  0  0  0  0999 V2000
   -0.6200    1.5700   15.7750 C   0  0  0  0  0  0  0  0  0  0  0  0
   -0.8860    2.1740   16.9160 N   0  0  0  0  0  0  0  0  0  0  0  0
   -2.1600    2.6770   16.7590 C   0  0  0  0  0  0  0  0  0  0  0  0
   -3.0010    3.4220   17.6010 C   0  0  0  0  0  0  0  0  0  0  0  0
   -4.2090    3.8040   17.1360 N   0  0  0  0  0  0  0  0  0  0  0  0
   -4.5680    3.4310   15.8880 C   0  0  0  0  0  0  0  0  0  0  0  0
   -3.8530    2.7090   14.9970 N   0  0  0  0  0  0  0  0  0  0  0  0
   -2.6580    2.3710   15.5040 C   0  0  0  0  0  0  0  0  0  0  0  0
   -1.6650    1.6520   14.8970 N   0  0  0  0  0  0  0  0  0  0  0  0
   -1.7470    1.1100   13.5610 C   0  0  1  0  0  0  0  0  0  0  0  0
   -0.7050    1.6540   12.5680 C   0  0  2  0  0  0  0  0  0  0  0  0
   -0.5410    0.4630   11.6350 C   0  0  1  0  0  0  0  0  0  0  0  0
   -0.5980   -0.6980   12.6280 C   0  0  1  0  0  0  0  0  0  0  0  0
   -1.6200   -0.3380   13.5920 O   0  0  0  0  0  0  0  0  0  0  0  0
   -0.9340   -2.0550   12.0200 C   0  0  0  0  0  0  0  0  0  0  0  0
   -0.4360   -2.1150   10.6830 O   0  0  0  0  0  0  0  0  0  0  0  0
   -1.5990    0.4340   10.6770 O   0  0  0  0  0  0  0  0  0  0  0  0
    0.5540    1.9280   13.1940 O   0  0  0  0  0  0  0  0  0  0  0  0
   -5.7810    3.8340   15.4760 F   0  0  0  0  0  0  0  0  0  0  0  0
   -2.6410    3.7980   18.8880 N   0  0  0  0  0  0  0  0  0  0  0  0
    0.3298    1.0605   15.5553 H   0  0  0  0  0  0  0  0  0  0  0  0
   -2.7347    1.4312   13.1988 H   0  0  0  0  0  0  0  0  0  0  0  0
   -1.0146    2.5994   12.0985 H   0  0  0  0  0  0  0  0  0  0  0  0
    0.3739    0.4600   11.0243 H   0  0  0  0  0  0  0  0  0  0  0  0
    0.4044   -0.8307   13.0612 H   0  0  0  0  0  0  0  0  0  0  0  0
   -0.4690   -2.8508   12.6204 H   0  0  0  0  0  0  0  0  0  0  0  0
   -2.0254   -2.1921   12.0108 H   0  0  0  0  0  0  0  0  0  0  0  0
    0.5467   -2.2334   10.7019 H   0  0  0  0  0  0  0  0  0  0  0  0
   -2.4697    0.4101   11.1476 H   0  0  0  0  0  0  0  0  0  0  0  0
    0.4455    1.9044   14.1777 H   0  0  0  0  0  0  0  0  0  0  0  0
   -3.2945    4.3449   19.4665 H   0  0  0  0  0  0  0  0  0  0  0  0
   -1.7204    3.5300   19.2643 H   0  0  0  0  0  0  0  0  0  0  0  0
  1  2  2  0
  2  3  1  0
  3  4  2  0
  4  5  1  0
  5  6  2  0
  6  7  1  0
  7  8  2  0
  8  9  1  0
  9 10  1  0
 10 11  1  0
 11 12  1  0
 12 13  1  0
 13 14  1  0
 13 15  1  0
 15 16  1  0
 12 17  1  0
 11 18  1  0
  6 19  1  0
  4 20  1  0
  9  1  1  0
  8  3  1  0
 14 10  1  0
  1 21  1  0
 10 22  1  6
 11 23  1  6
 12 24  1  6
 13 25  1  6
 15 26  1  0
 15 27  1  0
 16 28  1  0
 17 29  1  0
 18 30  1  0
 20 31  1  0
 20 32  1  0
M  END
