
     RDKit          3D

 40 42  0  0  0  0  0  0  0  0999 V2000
 -129.6810   54.7890   42.1710 C   0  0  0  0  0  0  0  0  0  0  0  0
 -128.5080   53.9740   41.7160 C   0  0  0  0  0  0  0  0  0  0  0  0
 -128.5840   52.5770   41.6880 C   0  0  0  0  0  0  0  0  0  0  0  0
 -127.4820   51.8140   41.2930 C   0  0  0  0  0  0  0  0  0  0  0  0
 -126.2790   52.4390   40.9430 C   0  0  0  0  0  0  0  0  0  0  0  0
 -126.2020   53.8360   40.9680 C   0  0  0  0  0  0  0  0  0  0  0  0
 -127.3060   54.5970   41.3620 C   0  0  0  0  0  0  0  0  0  0  0  0
 -125.1280   51.6470   40.5180 C   0  0  0  0  0  0  0  0  0  0  0  0
 -124.0430   51.2900   41.2970 C   0  0  0  0  0  0  0  0  0  0  0  0
 -123.1110   50.6880   40.4260 C   0  0  0  0  0  0  0  0  0  0  0  0
 -123.5880   50.6600   39.1720 N   0  0  0  0  0  0  0  0  0  0  0  0
 -124.8540   51.1660   39.2370 N   0  0  0  0  0  0  0  0  0  0  0  0
 -125.6690   51.1140   38.0610 C   0  0  0  0  0  0  0  0  0  0  0  0
 -126.2860   52.2990   37.6120 C   0  0  0  0  0  0  0  0  0  0  0  0
 -127.0900   52.2990   36.4680 C   0  0  0  0  0  0  0  0  0  0  0  0
 -127.2650   51.1160   35.7520 C   0  0  0  0  0  0  0  0  0  0  0  0
 -126.6550   49.9340   36.1760 C   0  0  0  0  0  0  0  0  0  0  0  0
 -125.8510   49.9370   37.3230 C   0  0  0  0  0  0  0  0  0  0  0  0
 -128.3050   51.1040   34.3220 S   0  0  0  0  0  0  0  0  0  0  0  0
 -129.4520   51.9490   34.5600 O   0  0  0  0  0  0  0  0  0  0  0  0
 -127.4880   51.2240   33.1380 O   0  0  0  0  0  0  0  0  0  0  0  0
 -128.8860   49.5300   34.3280 N   0  0  0  0  0  0  0  0  0  0  0  0
 -121.7480   50.1640   40.7910 C   0  0  0  0  0  0  0  0  0  0  0  0
 -121.4060   50.4500   42.0740 F   0  0  0  0  0  0  0  0  0  0  0  0
 -121.6810   48.8080   40.6700 F   0  0  0  0  0  0  0  0  0  0  0  0
 -120.7680   50.6650   39.9940 F   0  0  0  0  0  0  0  0  0  0  0  0
 -129.7094   54.8087   43.2705 H   0  0  0  0  0  0  0  0  0  0  0  0
 -129.5847   55.8157   41.7882 H   0  0  0  0  0  0  0  0  0  0  0  0
 -130.6096   54.3406   41.7882 H   0  0  0  0  0  0  0  0  0  0  0  0
 -129.5187   52.0755   41.9793 H   0  0  0  0  0  0  0  0  0  0  0  0
 -127.5600   50.7174   41.2569 H   0  0  0  0  0  0  0  0  0  0  0  0
 -125.2677   54.3378   40.6760 H   0  0  0  0  0  0  0  0  0  0  0  0
 -127.2295   55.6939   41.3941 H   0  0  0  0  0  0  0  0  0  0  0  0
 -123.9292   51.4446   42.3801 H   0  0  0  0  0  0  0  0  0  0  0  0
 -126.1331   53.2355   38.1685 H   0  0  0  0  0  0  0  0  0  0  0  0
 -127.5807   53.2257   36.1356 H   0  0  0  0  0  0  0  0  0  0  0  0
 -126.8054   49.0025   35.6106 H   0  0  0  0  0  0  0  0  0  0  0  0
 -125.3587   49.0081   37.6468 H   0  0  0  0  0  0  0  0  0  0  0  0
 -129.0037   49.2112   35.3003 H   0  0  0  0  0  0  0  0  0  0  0  0
 -129.7945   49.4975   33.8437 H   0  0  0  0  0  0  0  0  0  0  0  0
  1  2  1  0
  2  3  2  0
  3  4  1  0
  4  5  2  0
  5  6  1  0
  6  7  2  0
  5  8  1  0
  8  9  2  0
  9 10  1  0
 10 11  2  0
 11 12  1  0
 12 13  1  0
 13 14  2  0
 14 15  1  0
 15 16  2  0
 16 17  1  0
 17 18  2  0
 16 19  1  0
 19 20  2  0
 19 21  2  0
 19 22  1  0
 10 23  1  0
 23 24  1  0
 23 25  1  0
 23 26  1  0
  7  2  1  0
 12  8  1  0
 18 13  1  0
  1 27  1  0
  1 28  1  0
  1 29  1  0
  3 30  1  0
  4 31  1  0
  6 32  1  0
  7 33  1  0
  9 34  1  0
 14 35  1  0
 15 36  1  0
 17 37  1  0
 18 38  1  0
 22 39  1  0
 22 40  1  0
M  END
