
     RDKit          3D

 42 45  0  0  0  0  0  0  0  0999 V2000
  -22.2540   66.0170   34.4820 C   0  0  0  0  0  0  0  0  0  0  0  0
  -22.7690   67.2550   33.7180 C   0  0  2  0  0  0  0  0  0  0  0  0
  -23.4470   66.7570   32.4330 C   0  0  0  0  0  0  0  0  0  0  0  0
  -22.4340   66.4360   31.3410 C   0  0  0  0  0  0  0  0  0  0  0  0
  -21.6790   67.7210   31.0570 C   0  0  2  0  0  0  0  0  0  0  0  0
  -21.0080   67.7890   29.6790 C   0  0  1  0  0  0  0  0  0  0  0  0
  -20.6480   69.2520   29.4200 C   0  0  0  0  0  0  0  0  0  0  0  0
  -20.5330   69.7210   28.2950 O   0  0  0  0  0  0  0  0  0  0  0  0
  -20.5250   70.0190   30.5460 O   0  0  0  0  0  0  0  0  0  0  0  0
  -19.9050   69.3100   31.6150 C   0  0  2  0  0  0  0  0  0  0  0  0
  -20.7750   68.1870   32.2310 C   0  0  1  0  0  0  0  0  0  0  0  0
  -21.7010   68.4250   33.4870 C   0  0  2  0  0  0  0  0  0  0  0  0
  -20.9600   68.6110   34.8360 C   0  0  0  0  0  0  0  0  0  0  0  0
  -19.7560   69.5250   34.8640 C   0  0  0  0  0  0  0  0  0  0  0  0
  -18.8560   69.3380   33.6510 C   0  0  2  0  0  0  0  0  0  0  0  0
  -19.4130   70.1560   32.6180 O   0  0  0  0  0  0  0  0  0  0  0  0
  -18.6290   67.9380   33.3120 O   0  0  0  0  0  0  0  0  0  0  0  0
  -19.8120   67.2310   32.6960 O   0  0  0  0  0  0  0  0  0  0  0  0
  -17.4730   69.9260   33.9420 C   0  0  0  0  0  0  0  0  0  0  0  0
  -19.8480   66.8340   29.4470 C   0  0  0  0  0  0  0  0  0  0  0  0
  -22.3288   66.1969   35.5646 H   0  0  0  0  0  0  0  0  0  0  0  0
  -22.8623   65.1409   34.2130 H   0  0  0  0  0  0  0  0  0  0  0  0
  -21.2038   65.8308   34.2130 H   0  0  0  0  0  0  0  0  0  0  0  0
  -23.5016   67.7731   34.3543 H   0  0  0  0  0  0  0  0  0  0  0  0
  -24.0208   65.8473   32.6638 H   0  0  0  0  0  0  0  0  0  0  0  0
  -24.1035   67.5581   32.0627 H   0  0  0  0  0  0  0  0  0  0  0  0
  -21.7391   65.6560   31.6856 H   0  0  0  0  0  0  0  0  0  0  0  0
  -22.9332   66.0614   30.4352 H   0  0  0  0  0  0  0  0  0  0  0  0
  -22.4697   68.4827   30.9891 H   0  0  0  0  0  0  0  0  0  0  0  0
  -21.7315   67.4221   28.9361 H   0  0  0  0  0  0  0  0  0  0  0  0
  -19.0500   68.8122   31.1342 H   0  0  0  0  0  0  0  0  0  0  0  0
  -22.1942   69.3700   33.2156 H   0  0  0  0  0  0  0  0  0  0  0  0
  -21.6890   69.0081   35.5577 H   0  0  0  0  0  0  0  0  0  0  0  0
  -20.5543   67.6148   35.0664 H   0  0  0  0  0  0  0  0  0  0  0  0
  -20.1049   70.5679   34.8873 H   0  0  0  0  0  0  0  0  0  0  0  0
  -19.1674   69.2762   35.7593 H   0  0  0  0  0  0  0  0  0  0  0  0
  -17.3232   69.9897   35.0299 H   0  0  0  0  0  0  0  0  0  0  0  0
  -16.6996   69.2789   33.5026 H   0  0  0  0  0  0  0  0  0  0  0  0
  -17.4024   70.9320   33.5026 H   0  0  0  0  0  0  0  0  0  0  0  0
  -19.4461   66.5031   30.4160 H   0  0  0  0  0  0  0  0  0  0  0  0
  -20.2002   65.9606   28.8786 H   0  0  0  0  0  0  0  0  0  0  0  0
  -19.0585   67.3474   28.8786 H   0  0  0  0  0  0  0  0  0  0  0  0
  1  2  1  0
  2  3  1  0
  3  4  1  0
  4  5  1  0
  5  6  1  0
  6  7  1  0
  7  8  2  0
  7  9  1  0
  9 10  1  0
 10 11  1  0
 11 12  1  0
 12 13  1  0
 13 14  1  0
 14 15  1  0
 15 16  1  0
 15 17  1  0
 17 18  1  0
 15 19  1  1
  6 20  1  0
 12  2  1  0
 11  5  1  0
 16 10  1  0
 11 18  1  1
  1 21  1  0
  1 22  1  0
  1 23  1  0
  2 24  1  1
  3 25  1  0
  3 26  1  0
  4 27  1  0
  4 28  1  0
  5 29  1  1
  6 30  1  1
 10 31  1  1
 12 32  1  1
 13 33  1  0
 13 34  1  0
 14 35  1  0
 14 36  1  0
 19 37  1  0
 19 38  1  0
 19 39  1  0
 20 40  1  0
 20 41  1  0
 20 42  1  0
M  END
