
     RDKit          3D

 60 61  0  0  0  0  0  0  0  0999 V2000
   -9.6220   -0.3900   10.0010 C   0  0  0  0  0  0  0  0  0  0  0  0
   -8.5250    0.6360   10.2500 C   0  0  0  0  0  0  0  0  0  0  0  0
   -7.9680    0.2230   11.6160 C   0  0  2  0  0  0  0  0  0  0  0  0
   -8.1610   -1.2310   11.6490 N   0  0  0  0  0  0  0  0  0  0  0  0
   -9.0210   -1.6710   10.5590 C   0  0  0  0  0  0  0  0  0  0  0  0
   -7.3950   -2.0050   12.4930 C   0  0  0  0  0  0  0  0  0  0  0  0
   -6.6150   -1.4590   13.2850 O   0  0  0  0  0  0  0  0  0  0  0  0
   -7.4080   -3.5530   12.4080 C   0  0  2  0  0  0  0  0  0  0  0  0
   -7.1270   -4.1060   13.8240 C   0  0  0  0  0  0  0  0  0  0  0  0
   -8.2400   -5.0230   14.3470 C   0  0  0  0  0  0  0  0  0  0  0  0
   -8.0920   -6.4430   13.7890 C   0  0  0  0  0  0  0  0  0  0  0  0
   -8.3520   -7.5360   14.8280 C   0  0  0  0  0  0  0  0  0  0  0  0
   -8.0310   -7.1200   16.1880 N   0  0  0  0  0  0  0  0  0  0  0  0
   -6.4690   -4.1490   11.4250 N   0  0  0  0  0  0  0  0  0  0  0  0
   -5.1950   -3.4040   11.1880 C   0  0  1  0  0  0  0  0  0  0  0  0
   -3.9560   -4.1160   11.7650 C   0  0  0  0  0  0  0  0  0  0  0  0
   -3.4720   -3.5270   13.0990 C   0  0  0  0  0  0  0  0  0  0  0  0
   -2.6040   -2.3020   12.9790 C   0  0  0  0  0  0  0  0  0  0  0  0
   -2.8620   -1.1670   13.7600 C   0  0  0  0  0  0  0  0  0  0  0  0
   -2.0530   -0.0350   13.6550 C   0  0  0  0  0  0  0  0  0  0  0  0
   -0.9800   -0.0250   12.7670 C   0  0  0  0  0  0  0  0  0  0  0  0
   -0.7160   -1.1450   11.9830 C   0  0  0  0  0  0  0  0  0  0  0  0
   -1.5240   -2.2780   12.0850 C   0  0  0  0  0  0  0  0  0  0  0  0
   -5.0750   -2.9960    9.7170 C   0  0  0  0  0  0  0  0  0  0  0  0
   -5.9750   -2.5200    9.0390 O   0  0  0  0  0  0  0  0  0  0  0  0
   -3.9030   -3.3600    9.1620 O   0  0  0  0  0  0  0  0  0  0  0  0
   -8.6510    1.0330   12.7250 C   0  0  0  0  0  0  0  0  0  0  0  0
   -9.7870    1.4900   12.6600 O   0  0  0  0  0  0  0  0  0  0  0  0
   -7.9400    1.2300   13.8570 O   0  0  0  0  0  0  0  0  0  0  0  0
  -10.5450   -0.1203   10.5352 H   0  0  0  0  0  0  0  0  0  0  0  0
   -9.9101   -0.4701    8.9424 H   0  0  0  0  0  0  0  0  0  0  0  0
   -7.7481    0.5801    9.4733 H   0  0  0  0  0  0  0  0  0  0  0  0
   -8.8896    1.6736   10.2270 H   0  0  0  0  0  0  0  0  0  0  0  0
   -6.9028    0.4420   11.7815 H   0  0  0  0  0  0  0  0  0  0  0  0
   -8.4344   -2.1923    9.7882 H   0  0  0  0  0  0  0  0  0  0  0  0
   -9.7914   -2.3799   10.8966 H   0  0  0  0  0  0  0  0  0  0  0  0
   -8.4018   -3.8419   12.0353 H   0  0  0  0  0  0  0  0  0  0  0  0
   -6.1876   -4.6775   13.7959 H   0  0  0  0  0  0  0  0  0  0  0  0
   -7.0666   -3.2444   14.5051 H   0  0  0  0  0  0  0  0  0  0  0  0
   -8.1879   -5.0611   15.4451 H   0  0  0  0  0  0  0  0  0  0  0  0
   -9.2091   -4.6181   14.0201 H   0  0  0  0  0  0  0  0  0  0  0  0
   -8.8081   -6.5694   12.9637 H   0  0  0  0  0  0  0  0  0  0  0  0
   -7.0493   -6.5535   13.4564 H   0  0  0  0  0  0  0  0  0  0  0  0
   -9.4163   -7.8111   14.7880 H   0  0  0  0  0  0  0  0  0  0  0  0
   -7.6977   -8.3852   14.5816 H   0  0  0  0  0  0  0  0  0  0  0  0
   -8.5088   -7.7392   16.8582 H   0  0  0  0  0  0  0  0  0  0  0  0
   -7.0129   -7.1772   16.3333 H   0  0  0  0  0  0  0  0  0  0  0  0
   -6.2233   -5.0922   11.7581 H   0  0  0  0  0  0  0  0  0  0  0  0
   -5.2355   -2.4682   11.7647 H   0  0  0  0  0  0  0  0  0  0  0  0
   -4.2063   -5.1754   11.9233 H   0  0  0  0  0  0  0  0  0  0  0  0
   -3.1405   -3.9820   11.0391 H   0  0  0  0  0  0  0  0  0  0  0  0
   -4.3573   -3.2603   13.6949 H   0  0  0  0  0  0  0  0  0  0  0  0
   -2.8461   -4.3013   13.5667 H   0  0  0  0  0  0  0  0  0  0  0  0
   -3.7093   -1.1687   14.4615 H   0  0  0  0  0  0  0  0  0  0  0  0
   -2.2627    0.8499   14.2738 H   0  0  0  0  0  0  0  0  0  0  0  0
   -0.3416    0.8671   12.6851 H   0  0  0  0  0  0  0  0  0  0  0  0
    0.1314   -1.1366   11.2817 H   0  0  0  0  0  0  0  0  0  0  0  0
   -1.3124   -3.1581   11.4600 H   0  0  0  0  0  0  0  0  0  0  0  0
   -3.7172   -3.1467    8.2133 H   0  0  0  0  0  0  0  0  0  0  0  0
   -8.3330    1.7460   14.6049 H   0  0  0  0  0  0  0  0  0  0  0  0
  1  2  1  0
  2  3  1  0
  3  4  1  0
  4  5  1  0
  4  6  1  0
  6  7  2  0
  6  8  1  0
  8  9  1  0
  9 10  1  0
 10 11  1  0
 11 12  1  0
 12 13  1  0
  8 14  1  0
 14 15  1  0
 15 16  1  0
 16 17  1  0
 17 18  1  0
 18 19  2  0
 19 20  1  0
 20 21  2  0
 21 22  1  0
 22 23  2  0
 15 24  1  0
 24 25  2  0
 24 26  1  0
  3 27  1  0
 27 28  2  0
 27 29  1  0
  5  1  1  0
 23 18  1  0
  1 30  1  0
  1 31  1  0
  2 32  1  0
  2 33  1  0
  3 34  1  6
  5 35  1  0
  5 36  1  0
  8 37  1  6
  9 38  1  0
  9 39  1  0
 10 40  1  0
 10 41  1  0
 11 42  1  0
 11 43  1  0
 12 44  1  0
 12 45  1  0
 13 46  1  0
 13 47  1  0
 14 48  1  0
 15 49  1  1
 16 50  1  0
 16 51  1  0
 17 52  1  0
 17 53  1  0
 19 54  1  0
 20 55  1  0
 21 56  1  0
 22 57  1  0
 23 58  1  0
 26 59  1  0
 29 60  1  0
M  END
