
     RDKit          3D

 31 32  0  0  0  0  0  0  0  0999 V2000
   -6.3020    8.5550   19.5110 C   0  0  0  0  0  0  0  0  0  0  0  0
   -6.5220    7.0790   19.4920 C   0  0  0  0  0  0  0  0  0  0  0  0
   -6.0160    6.2510   18.5690 C   0  0  0  0  0  0  0  0  0  0  0  0
   -6.2440    4.8890   18.5910 N   0  0  0  0  0  0  0  0  0  0  0  0
   -7.0430    4.3020   19.5600 C   0  0  0  0  0  0  0  0  0  0  0  0
   -7.3000    3.1000   19.5890 O   0  0  0  0  0  0  0  0  0  0  0  0
   -7.5470    5.1460   20.5110 N   0  0  0  0  0  0  0  0  0  0  0  0
   -7.3610    6.4970   20.5650 C   0  0  0  0  0  0  0  0  0  0  0  0
   -7.8610    7.1870   21.4460 O   0  0  0  0  0  0  0  0  0  0  0  0
   -5.7350    4.0030   17.5530 C   0  0  1  0  0  0  0  0  0  0  0  0
   -5.2650    4.7170   16.2780 C   0  0  2  0  0  0  0  0  0  0  0  0
   -4.1240    3.8330   15.8230 C   0  0  1  0  0  0  0  0  0  0  0  0
   -3.5030    3.4560   17.1640 C   0  0  1  0  0  0  0  0  0  0  0  0
   -4.6340    3.1930   18.0290 O   0  0  0  0  0  0  0  0  0  0  0  0
   -2.5790    2.2420   17.1120 C   0  0  0  0  0  0  0  0  0  0  0  0
   -3.3370    1.0550   17.3500 O   0  0  0  0  0  0  0  0  0  0  0  0
   -4.6000    2.6960   15.0970 O   0  0  0  0  0  0  0  0  0  0  0  0
   -4.7560    5.9480   16.5780 F   0  0  0  0  0  0  0  0  0  0  0  0
   -6.2499    8.9046   20.5527 H   0  0  0  0  0  0  0  0  0  0  0  0
   -5.3586    8.7918   18.9972 H   0  0  0  0  0  0  0  0  0  0  0  0
   -7.1353    9.0566   18.9972 H   0  0  0  0  0  0  0  0  0  0  0  0
   -5.3958    6.6712   17.7635 H   0  0  0  0  0  0  0  0  0  0  0  0
   -8.1198    4.7229   21.2552 H   0  0  0  0  0  0  0  0  0  0  0  0
   -6.6048    3.3801   17.2973 H   0  0  0  0  0  0  0  0  0  0  0  0
   -6.0700    4.8619   15.5425 H   0  0  0  0  0  0  0  0  0  0  0  0
   -3.4188    4.3082   15.1252 H   0  0  0  0  0  0  0  0  0  0  0  0
   -2.8526    4.2701   17.5165 H   0  0  0  0  0  0  0  0  0  0  0  0
   -2.1071    2.1828   16.1201 H   0  0  0  0  0  0  0  0  0  0  0  0
   -1.8010    2.3406   17.8834 H   0  0  0  0  0  0  0  0  0  0  0  0
   -3.4284    0.9118   18.3253 H   0  0  0  0  0  0  0  0  0  0  0  0
   -4.8927    1.9968   15.7338 H   0  0  0  0  0  0  0  0  0  0  0  0
  1  2  1  0
  2  3  2  0
  3  4  1  0
  4  5  1  0
  5  6  2  0
  5  7  1  0
  7  8  1  0
  8  9  2  0
  4 10  1  0
 10 11  1  0
 11 12  1  0
 12 13  1  0
 13 14  1  0
 13 15  1  0
 15 16  1  0
 12 17  1  0
 11 18  1  0
  8  2  1  0
 14 10  1  0
  1 19  1  0
  1 20  1  0
  1 21  1  0
  3 22  1  0
  7 23  1  0
 10 24  1  1
 11 25  1  1
 12 26  1  1
 13 27  1  1
 15 28  1  0
 15 29  1  0
 16 30  1  0
 17 31  1  0
M  END
