
     RDKit          3D

 29 30  0  0  0  0  0  0  0  0999 V2000
   -8.0790   72.4490   12.1440 C   0  0  0  0  0  0  0  0  0  0  0  0
   -7.5790   73.6180   12.7310 C   0  0  0  0  0  0  0  0  0  0  0  0
   -7.1650   73.6310   14.0680 C   0  0  0  0  0  0  0  0  0  0  0  0
   -7.2640   72.4360   14.8110 C   0  0  0  0  0  0  0  0  0  0  0  0
   -7.7620   71.2630   14.2380 C   0  0  0  0  0  0  0  0  0  0  0  0
   -8.1690   71.2760   12.9010 C   0  0  0  0  0  0  0  0  0  0  0  0
   -8.6930   70.0500   12.2880 N   0  0  0  0  0  0  0  0  0  0  0  0
   -9.9230   69.9030   12.2580 O   0  0  0  0  0  0  0  0  0  0  0  0
   -7.8760   69.2350   11.8380 O   0  0  0  0  0  0  0  0  0  0  0  0
   -6.7720   72.3700   16.4710 Cl  0  0  0  0  0  0  0  0  0  0  0  0
   -6.6520   74.7840   14.7070 N   0  0  0  0  0  0  0  0  0  0  0  0
   -7.2330   76.0290   14.8330 C   0  0  0  0  0  0  0  0  0  0  0  0
   -8.3340   76.3440   14.3920 O   0  0  0  0  0  0  0  0  0  0  0  0
   -6.4380   77.0670   15.5760 C   0  0  0  0  0  0  0  0  0  0  0  0
   -6.2940   78.4050   15.1700 C   0  0  0  0  0  0  0  0  0  0  0  0
   -5.5340   79.3050   15.9240 C   0  0  0  0  0  0  0  0  0  0  0  0
   -4.9090   78.8770   17.0960 C   0  0  0  0  0  0  0  0  0  0  0  0
   -5.0450   77.5550   17.5080 C   0  0  0  0  0  0  0  0  0  0  0  0
   -5.8010   76.6540   16.7590 C   0  0  0  0  0  0  0  0  0  0  0  0
   -4.2720   77.0320   18.9530 Cl  0  0  0  0  0  0  0  0  0  0  0  0
   -6.8940   78.8580   14.0250 O   0  0  0  0  0  0  0  0  0  0  0  0
   -8.3997   72.4531   11.0918 H   0  0  0  0  0  0  0  0  0  0  0  0
   -7.5107   74.5388   12.1331 H   0  0  0  0  0  0  0  0  0  0  0  0
   -7.8329   70.3400   14.8323 H   0  0  0  0  0  0  0  0  0  0  0  0
   -5.7210   74.6803   15.1351 H   0  0  0  0  0  0  0  0  0  0  0  0
   -5.4291   80.3489   15.5936 H   0  0  0  0  0  0  0  0  0  0  0  0
   -4.3110   79.5822   17.6919 H   0  0  0  0  0  0  0  0  0  0  0  0
   -5.8997   75.6117   17.0966 H   0  0  0  0  0  0  0  0  0  0  0  0
   -6.7851   79.8027   13.7495 H   0  0  0  0  0  0  0  0  0  0  0  0
  1  2  2  0
  2  3  1  0
  3  4  2  0
  4  5  1  0
  5  6  2  0
  6  7  1  0
  7  8  2  0
  7  9  1  0
  4 10  1  0
  3 11  1  0
 11 12  1  0
 12 13  2  0
 12 14  1  0
 14 15  2  0
 15 16  1  0
 16 17  2  0
 17 18  1  0
 18 19  2  0
 18 20  1  0
 15 21  1  0
  6  1  1  0
 19 14  1  0
  1 22  1  0
  2 23  1  0
  5 24  1  0
 11 25  1  0
 16 26  1  0
 17 27  1  0
 19 28  1  0
 21 29  1  0
M  CHG  2   7   1   9  -1
M  END
