
     RDKit          3D

 33 34  0  0  0  0  0  0  0  0999 V2000
  -17.8660   68.9970   13.1310 C   0  0  0  0  0  0  0  0  0  0  0  0
  -17.9350   70.1790   12.1730 C   0  0  0  0  0  0  0  0  0  0  0  0
  -19.2970   70.8760   12.1490 C   0  0  0  0  0  0  0  0  0  0  0  0
  -19.2130   72.5710   12.8220 S   0  0  0  0  0  0  0  0  0  0  0  0
  -19.2730   72.1920   14.5670 C   0  0  0  0  0  0  0  0  0  0  0  0
  -20.5210   72.0910   15.1990 C   0  0  0  0  0  0  0  0  0  0  0  0
  -20.5610   71.7900   16.5670 C   0  0  0  0  0  0  0  0  0  0  0  0
  -19.3690   71.5900   17.2560 C   0  0  0  0  0  0  0  0  0  0  0  0
  -18.1120   71.6700   16.6560 C   0  0  0  0  0  0  0  0  0  0  0  0
  -18.0910   71.9750   15.2890 C   0  0  0  0  0  0  0  0  0  0  0  0
  -19.7680   71.3180   18.5380 N   0  0  0  0  0  0  0  0  0  0  0  0
  -21.1380   71.3630   18.5810 C   0  0  0  0  0  0  0  0  0  0  0  0
  -21.6420   71.6470   17.4040 N   0  0  0  0  0  0  0  0  0  0  0  0
  -21.8780   71.1390   19.7080 N   0  0  0  0  0  0  0  0  0  0  0  0
  -21.3270   70.8450   20.9190 C   0  0  0  0  0  0  0  0  0  0  0  0
  -20.1300   70.7460   21.1600 O   0  0  0  0  0  0  0  0  0  0  0  0
  -22.3180   70.6770   21.8320 O   0  0  0  0  0  0  0  0  0  0  0  0
  -21.8960   70.0530   23.0460 C   0  0  0  0  0  0  0  0  0  0  0  0
  -17.8874   69.3637   14.1679 H   0  0  0  0  0  0  0  0  0  0  0  0
  -18.7270   68.3345   12.9585 H   0  0  0  0  0  0  0  0  0  0  0  0
  -16.9338   68.4392   12.9585 H   0  0  0  0  0  0  0  0  0  0  0  0
  -17.1744   70.9144   12.4742 H   0  0  0  0  0  0  0  0  0  0  0  0
  -17.7603   69.7825   11.1619 H   0  0  0  0  0  0  0  0  0  0  0  0
  -19.6524   70.9245   11.1091 H   0  0  0  0  0  0  0  0  0  0  0  0
  -19.9860   70.2949   12.7796 H   0  0  0  0  0  0  0  0  0  0  0  0
  -21.4507   72.2451   14.6316 H   0  0  0  0  0  0  0  0  0  0  0  0
  -17.1864   71.5024   17.2262 H   0  0  0  0  0  0  0  0  0  0  0  0
  -17.1240   72.0459   14.7696 H   0  0  0  0  0  0  0  0  0  0  0  0
  -22.6377   71.7427   17.1586 H   0  0  0  0  0  0  0  0  0  0  0  0
  -22.9041   71.1953   19.6384 H   0  0  0  0  0  0  0  0  0  0  0  0
  -22.2814   70.6228   23.9044 H   0  0  0  0  0  0  0  0  0  0  0  0
  -22.2848   69.0247   23.0842 H   0  0  0  0  0  0  0  0  0  0  0  0
  -20.7969   70.0310   23.0842 H   0  0  0  0  0  0  0  0  0  0  0  0
  1  2  1  0
  2  3  1  0
  3  4  1  0
  4  5  1  0
  5  6  2  0
  6  7  1  0
  7  8  2  0
  8  9  1  0
  9 10  2  0
  8 11  1  0
 11 12  2  0
 12 13  1  0
 12 14  1  0
 14 15  1  0
 15 16  2  0
 15 17  1  0
 17 18  1  0
 10  5  1  0
 13  7  1  0
  1 19  1  0
  1 20  1  0
  1 21  1  0
  2 22  1  0
  2 23  1  0
  3 24  1  0
  3 25  1  0
  6 26  1  0
  9 27  1  0
 10 28  1  0
 13 29  1  0
 14 30  1  0
 18 31  1  0
 18 32  1  0
 18 33  1  0
M  END
