
     RDKit          3D

 76 79  0  0  0  0  0  0  0  0999 V2000
   -0.0920   73.2730   20.1000 C   0  0  0  0  0  0  0  0  0  0  0  0
   -0.9830   72.0280   20.1130 C   0  0  0  0  0  0  0  0  0  0  0  0
   -1.6330   71.7530   18.7600 C   0  0  0  0  0  0  0  0  0  0  0  0
   -1.9590   72.0210   21.2800 C   0  0  0  0  0  0  0  0  0  0  0  0
   -2.2270   70.9500   22.1410 C   0  0  0  0  0  0  0  0  0  0  0  0
   -3.1090   71.4380   23.1580 C   0  0  0  0  0  0  0  0  0  0  0  0
   -3.3720   72.7760   22.8970 C   0  0  0  0  0  0  0  0  0  0  0  0
   -2.7420   73.0890   21.6980 N   0  0  0  0  0  0  0  0  0  0  0  0
   -2.9470   74.3520   20.9910 C   0  0  0  0  0  0  0  0  0  0  0  0
   -4.0650   74.2650   19.9520 C   0  0  0  0  0  0  0  0  0  0  0  0
   -3.9050   75.2780   18.8100 C   0  0  2  0  0  0  0  0  0  0  0  0
   -4.4670   76.6900   19.0470 C   0  0  0  0  0  0  0  0  0  0  0  0
   -5.9900   76.7750   19.2360 C   0  0  2  0  0  0  0  0  0  0  0  0
   -6.4780   76.1570   20.5510 C   0  0  0  0  0  0  0  0  0  0  0  0
   -7.6330   75.2160   20.3600 C   0  0  0  0  0  0  0  0  0  0  0  0
   -7.5670   74.0130   20.1660 O   0  0  0  0  0  0  0  0  0  0  0  0
   -8.8200   75.8500   20.3900 O   0  0  0  0  0  0  0  0  0  0  0  0
   -6.6810   76.2070   18.1310 O   0  0  0  0  0  0  0  0  0  0  0  0
   -4.4660   74.7340   17.6150 O   0  0  0  0  0  0  0  0  0  0  0  0
   -4.2140   73.7120   23.6520 C   0  0  0  0  0  0  0  0  0  0  0  0
   -3.6560   74.5130   24.6570 C   0  0  0  0  0  0  0  0  0  0  0  0
   -4.4530   75.4220   25.3550 C   0  0  0  0  0  0  0  0  0  0  0  0
   -5.8020   75.5310   25.0440 C   0  0  0  0  0  0  0  0  0  0  0  0
   -6.3720   74.7490   24.0450 C   0  0  0  0  0  0  0  0  0  0  0  0
   -5.5770   73.8410   23.3450 C   0  0  0  0  0  0  0  0  0  0  0  0
   -6.5680   76.4010   25.7160 F   0  0  0  0  0  0  0  0  0  0  0  0
   -3.6950   70.7110   24.2780 C   0  0  0  0  0  0  0  0  0  0  0  0
   -3.0360   70.6470   25.5120 C   0  0  0  0  0  0  0  0  0  0  0  0
   -3.5860   69.9170   26.5670 C   0  0  0  0  0  0  0  0  0  0  0  0
   -4.7950   69.2430   26.3920 C   0  0  0  0  0  0  0  0  0  0  0  0
   -5.4550   69.3010   25.1660 C   0  0  0  0  0  0  0  0  0  0  0  0
   -4.9080   70.0330   24.1110 C   0  0  0  0  0  0  0  0  0  0  0  0
   -1.6780   69.5880   21.9960 C   0  0  0  0  0  0  0  0  0  0  0  0
   -0.5910   69.2910   22.4780 O   0  0  0  0  0  0  0  0  0  0  0  0
   -2.5120   68.7370   21.2970 N   0  0  0  0  0  0  0  0  0  0  0  0
   -2.2890   67.3910   20.9480 C   0  0  0  0  0  0  0  0  0  0  0  0
   -2.6210   66.3050   21.7580 C   0  0  0  0  0  0  0  0  0  0  0  0
   -2.3620   64.9980   21.3320 C   0  0  0  0  0  0  0  0  0  0  0  0
   -1.7680   64.7680   20.0940 C   0  0  0  0  0  0  0  0  0  0  0  0
   -1.4310   65.8440   19.2780 C   0  0  0  0  0  0  0  0  0  0  0  0
   -1.6910   67.1500   19.7040 C   0  0  0  0  0  0  0  0  0  0  0  0
    0.1265   73.5783   21.1339 H   0  0  0  0  0  0  0  0  0  0  0  0
    0.8492   73.0449   19.5784 H   0  0  0  0  0  0  0  0  0  0  0  0
   -0.6116   74.0903   19.5784 H   0  0  0  0  0  0  0  0  0  0  0  0
   -0.3190   71.1687   20.2881 H   0  0  0  0  0  0  0  0  0  0  0  0
   -2.6360   71.3286   18.9146 H   0  0  0  0  0  0  0  0  0  0  0  0
   -1.7157   72.6932   18.1951 H   0  0  0  0  0  0  0  0  0  0  0  0
   -1.0158   71.0389   18.1951 H   0  0  0  0  0  0  0  0  0  0  0  0
   -3.2068   75.1292   21.7248 H   0  0  0  0  0  0  0  0  0  0  0  0
   -2.0145   74.5936   20.4599 H   0  0  0  0  0  0  0  0  0  0  0  0
   -4.0670   73.2518   19.5237 H   0  0  0  0  0  0  0  0  0  0  0  0
   -5.0096   74.4963   20.4661 H   0  0  0  0  0  0  0  0  0  0  0  0
   -2.8187   75.4329   18.7330 H   0  0  0  0  0  0  0  0  0  0  0  0
   -3.9905   77.0967   19.9512 H   0  0  0  0  0  0  0  0  0  0  0  0
   -4.2447   77.2599   18.1328 H   0  0  0  0  0  0  0  0  0  0  0  0
   -6.2233   77.8487   19.2889 H   0  0  0  0  0  0  0  0  0  0  0  0
   -5.6454   75.6028   21.0089 H   0  0  0  0  0  0  0  0  0  0  0  0
   -6.8244   76.9793   21.1943 H   0  0  0  0  0  0  0  0  0  0  0  0
   -9.6585   75.3364   20.2753 H   0  0  0  0  0  0  0  0  0  0  0  0
   -7.4018   75.6145   18.4618 H   0  0  0  0  0  0  0  0  0  0  0  0
   -5.1565   74.0645   17.8497 H   0  0  0  0  0  0  0  0  0  0  0  0
   -2.5861   74.4253   24.8969 H   0  0  0  0  0  0  0  0  0  0  0  0
   -4.0152   76.0480   26.1464 H   0  0  0  0  0  0  0  0  0  0  0  0
   -7.4419   74.8457   23.8085 H   0  0  0  0  0  0  0  0  0  0  0  0
   -6.0204   73.2240   22.5495 H   0  0  0  0  0  0  0  0  0  0  0  0
   -2.0807   71.1744   25.6505 H   0  0  0  0  0  0  0  0  0  0  0  0
   -3.0666   69.8732   27.5357 H   0  0  0  0  0  0  0  0  0  0  0  0
   -5.2275   68.6655   27.2223 H   0  0  0  0  0  0  0  0  0  0  0  0
   -6.4082   68.7692   25.0296 H   0  0  0  0  0  0  0  0  0  0  0  0
   -5.4321   70.0772   23.1449 H   0  0  0  0  0  0  0  0  0  0  0  0
   -3.4107   69.1377   20.9925 H   0  0  0  0  0  0  0  0  0  0  0  0
   -3.0895   66.4775   22.7382 H   0  0  0  0  0  0  0  0  0  0  0  0
   -2.6287   64.1484   21.9778 H   0  0  0  0  0  0  0  0  0  0  0  0
   -1.5657   63.7391   19.7618 H   0  0  0  0  0  0  0  0  0  0  0  0
   -0.9608   65.6671   18.2994 H   0  0  0  0  0  0  0  0  0  0  0  0
   -1.4232   67.9973   19.0557 H   0  0  0  0  0  0  0  0  0  0  0  0
  1  2  1  0
  2  3  1  0
  2  4  1  0
  4  5  2  0
  5  6  1  0
  6  7  2  0
  7  8  1  0
  8  9  1  0
  9 10  1  0
 10 11  1  0
 11 12  1  0
 12 13  1  0
 13 14  1  0
 14 15  1  0
 15 16  2  0
 15 17  1  0
 13 18  1  0
 11 19  1  0
  7 20  1  0
 20 21  2  0
 21 22  1  0
 22 23  2  0
 23 24  1  0
 24 25  2  0
 23 26  1  0
  6 27  1  0
 27 28  2  0
 28 29  1  0
 29 30  2  0
 30 31  1  0
 31 32  2  0
  5 33  1  0
 33 34  2  0
 33 35  1  0
 35 36  1  0
 36 37  2  0
 37 38  1  0
 38 39  2  0
 39 40  1  0
 40 41  2  0
  8  4  1  0
 25 20  1  0
 32 27  1  0
 41 36  1  0
  1 42  1  0
  1 43  1  0
  1 44  1  0
  2 45  1  0
  3 46  1  0
  3 47  1  0
  3 48  1  0
  9 49  1  0
  9 50  1  0
 10 51  1  0
 10 52  1  0
 11 53  1  6
 12 54  1  0
 12 55  1  0
 13 56  1  1
 14 57  1  0
 14 58  1  0
 17 59  1  0
 18 60  1  0
 19 61  1  0
 21 62  1  0
 22 63  1  0
 24 64  1  0
 25 65  1  0
 28 66  1  0
 29 67  1  0
 30 68  1  0
 31 69  1  0
 32 70  1  0
 35 71  1  0
 37 72  1  0
 38 73  1  0
 39 74  1  0
 40 75  1  0
 41 76  1  0
M  END
