
     RDKit          3D

 62 65  0  0  0  0  0  0  0  0999 V2000
   -3.0470   62.6320   21.7700 C   0  0  0  0  0  0  0  0  0  0  0  0
   -4.4320   62.2870   22.3790 C   0  0  0  0  0  0  0  0  0  0  0  0
   -4.3160   60.8280   22.8780 C   0  0  0  0  0  0  0  0  0  0  0  0
   -5.4400   62.3650   21.2150 C   0  0  0  0  0  0  0  0  0  0  0  0
   -4.8590   63.2330   23.5330 C   0  0  0  0  0  0  0  0  0  0  0  0
   -5.4210   62.7080   24.7200 C   0  0  0  0  0  0  0  0  0  0  0  0
   -5.8830   63.5090   25.7820 C   0  0  0  0  0  0  0  0  0  0  0  0
   -5.7950   64.8940   25.6280 C   0  0  0  0  0  0  0  0  0  0  0  0
   -5.2390   65.4870   24.4780 C   0  0  0  0  0  0  0  0  0  0  0  0
   -4.7300   64.6410   23.4610 C   0  0  0  0  0  0  0  0  0  0  0  0
   -4.1480   65.1830   22.3380 O   0  0  0  0  0  0  0  0  0  0  0  0
   -2.8440   65.7120   22.5960 C   0  0  0  0  0  0  0  0  0  0  0  0
   -5.2500   66.9590   24.3740 C   0  0  0  0  0  0  0  0  0  0  0  0
   -4.6600   67.7600   25.3670 C   0  0  0  0  0  0  0  0  0  0  0  0
   -4.6640   69.1630   25.2790 C   0  0  0  0  0  0  0  0  0  0  0  0
   -5.2790   69.7870   24.1700 C   0  0  0  0  0  0  0  0  0  0  0  0
   -5.8750   68.9910   23.1820 C   0  0  0  0  0  0  0  0  0  0  0  0
   -5.8620   67.5970   23.2850 C   0  0  0  0  0  0  0  0  0  0  0  0
   -5.2790   71.1880   24.0780 C   0  0  0  0  0  0  0  0  0  0  0  0
   -4.6910   71.9610   25.0780 C   0  0  0  0  0  0  0  0  0  0  0  0
   -4.0730   71.3520   26.1680 C   0  0  0  0  0  0  0  0  0  0  0  0
   -4.0640   69.9590   26.2690 C   0  0  0  0  0  0  0  0  0  0  0  0
   -4.6620   73.3810   24.9470 N   0  0  0  0  0  0  0  0  0  0  0  0
   -6.1190   74.2060   25.2040 S   0  0  0  0  0  0  0  0  0  0  0  0
   -6.8990   73.5480   26.2280 O   0  0  0  0  0  0  0  0  0  0  0  0
   -6.6610   74.4420   23.8820 O   0  0  0  0  0  0  0  0  0  0  0  0
   -5.5290   75.7640   25.8280 C   0  0  0  0  0  0  0  0  0  0  0  0
   -6.4240   62.9050   26.9840 N   0  0  0  0  0  0  0  0  0  0  0  0
   -5.6480   62.7960   28.1360 C   0  0  0  0  0  0  0  0  0  0  0  0
   -6.0780   62.2230   29.2610 C   0  0  0  0  0  0  0  0  0  0  0  0
   -7.4370   61.6810   29.3070 C   0  0  0  0  0  0  0  0  0  0  0  0
   -7.8500   61.0810   30.2910 O   0  0  0  0  0  0  0  0  0  0  0  0
   -8.1850   61.8940   28.1900 N   0  0  0  0  0  0  0  0  0  0  0  0
   -7.7460   62.4070   26.9910 C   0  0  0  0  0  0  0  0  0  0  0  0
   -8.5170   62.3530   26.0350 O   0  0  0  0  0  0  0  0  0  0  0  0
   -2.3248   62.8119   22.5800 H   0  0  0  0  0  0  0  0  0  0  0  0
   -2.7001   61.7928   21.1492 H   0  0  0  0  0  0  0  0  0  0  0  0
   -3.1343   63.5358   21.1492 H   0  0  0  0  0  0  0  0  0  0  0  0
   -4.3150   60.8157   23.9779 H   0  0  0  0  0  0  0  0  0  0  0  0
   -5.1706   60.2440   22.5055 H   0  0  0  0  0  0  0  0  0  0  0  0
   -3.3799   60.3864   22.5055 H   0  0  0  0  0  0  0  0  0  0  0  0
   -6.4604   62.4440   21.6183 H   0  0  0  0  0  0  0  0  0  0  0  0
   -5.2201   63.2488   20.5981 H   0  0  0  0  0  0  0  0  0  0  0  0
   -5.3587   61.4579   20.5981 H   0  0  0  0  0  0  0  0  0  0  0  0
   -5.5015   61.6154   24.8189 H   0  0  0  0  0  0  0  0  0  0  0  0
   -6.1725   65.5434   26.4316 H   0  0  0  0  0  0  0  0  0  0  0  0
   -2.6831   65.7773   23.6822 H   0  0  0  0  0  0  0  0  0  0  0  0
   -2.0855   65.0505   22.1521 H   0  0  0  0  0  0  0  0  0  0  0  0
   -2.7608   66.7150   22.1521 H   0  0  0  0  0  0  0  0  0  0  0  0
   -4.1839   67.2776   26.2334 H   0  0  0  0  0  0  0  0  0  0  0  0
   -6.3580   69.4683   22.3166 H   0  0  0  0  0  0  0  0  0  0  0  0
   -6.3388   66.9913   22.5003 H   0  0  0  0  0  0  0  0  0  0  0  0
   -5.7459   71.6788   23.2113 H   0  0  0  0  0  0  0  0  0  0  0  0
   -3.5943   71.9654   26.9455 H   0  0  0  0  0  0  0  0  0  0  0  0
   -3.5816   69.4797   27.1336 H   0  0  0  0  0  0  0  0  0  0  0  0
   -3.7946   73.8820   24.7071 H   0  0  0  0  0  0  0  0  0  0  0  0
   -5.5362   75.7449   26.9278 H   0  0  0  0  0  0  0  0  0  0  0  0
   -4.5030   75.9371   25.4710 H   0  0  0  0  0  0  0  0  0  0  0  0
   -6.1829   76.5733   25.4710 H   0  0  0  0  0  0  0  0  0  0  0  0
   -4.6267   63.2041   28.1167 H   0  0  0  0  0  0  0  0  0  0  0  0
   -5.4213   62.1587   30.1411 H   0  0  0  0  0  0  0  0  0  0  0  0
   -9.1829   61.6455   28.2482 H   0  0  0  0  0  0  0  0  0  0  0  0
  1  2  1  0
  2  3  1  0
  2  4  1  0
  2  5  1  0
  5  6  2  0
  6  7  1  0
  7  8  2  0
  8  9  1  0
  9 10  2  0
 10 11  1  0
 11 12  1  0
  9 13  1  0
 13 14  2  0
 14 15  1  0
 15 16  2  0
 16 17  1  0
 17 18  2  0
 16 19  1  0
 19 20  2  0
 20 21  1  0
 21 22  2  0
 20 23  1  0
 23 24  1  0
 24 25  2  0
 24 26  2  0
 24 27  1  0
  7 28  1  0
 28 29  1  0
 29 30  2  0
 30 31  1  0
 31 32  2  0
 31 33  1  0
 33 34  1  0
 34 35  2  0
 10  5  1  0
 18 13  1  0
 22 15  1  0
 34 28  1  0
  1 36  1  0
  1 37  1  0
  1 38  1  0
  3 39  1  0
  3 40  1  0
  3 41  1  0
  4 42  1  0
  4 43  1  0
  4 44  1  0
  6 45  1  0
  8 46  1  0
 12 47  1  0
 12 48  1  0
 12 49  1  0
 14 50  1  0
 17 51  1  0
 18 52  1  0
 19 53  1  0
 21 54  1  0
 22 55  1  0
 23 56  1  0
 27 57  1  0
 27 58  1  0
 27 59  1  0
 29 60  1  0
 30 61  1  0
 33 62  1  0
M  END
