
     RDKit          3D

 41 43  0  0  0  0  0  0  0  0999 V2000
  -18.2610    6.5810    2.1240 C   0  0  0  0  0  0  0  0  0  0  0  0
  -16.8790    6.8140    1.8860 O   0  0  0  0  0  0  0  0  0  0  0  0
  -16.0380    5.7330    1.8920 C   0  0  0  0  0  0  0  0  0  0  0  0
  -14.9170    5.7840    1.0460 C   0  0  0  0  0  0  0  0  0  0  0  0
  -13.9980    4.7260    1.0860 C   0  0  0  0  0  0  0  0  0  0  0  0
  -14.1660    3.6400    1.8880 N   0  0  0  0  0  0  0  0  0  0  0  0
  -15.2700    3.6020    2.6570 C   0  0  0  0  0  0  0  0  0  0  0  0
  -16.2190    4.6090    2.6970 C   0  0  0  0  0  0  0  0  0  0  0  0
  -12.7490    4.7410    0.2410 C   0  0  0  0  0  0  0  0  0  0  0  0
  -11.5110    3.5380    0.8120 S   0  0  0  0  0  0  0  0  0  0  0  0
  -10.2300    4.2470    1.1560 O   0  0  0  0  0  0  0  0  0  0  0  0
  -11.2060    2.7870   -0.7960 C   0  0  0  0  0  0  0  0  0  0  0  0
  -11.7690    1.6860   -1.2420 N   0  0  0  0  0  0  0  0  0  0  0  0
  -11.2400    1.5000   -2.4960 C   0  0  0  0  0  0  0  0  0  0  0  0
  -10.3430    2.5130   -2.8160 C   0  0  0  0  0  0  0  0  0  0  0  0
  -10.3380    3.3190   -1.7090 N   0  0  0  0  0  0  0  0  0  0  0  0
   -9.6610    2.5740   -4.0330 C   0  0  0  0  0  0  0  0  0  0  0  0
   -9.9180    1.5580   -4.9660 C   0  0  0  0  0  0  0  0  0  0  0  0
  -10.8040    0.5190   -4.6610 C   0  0  0  0  0  0  0  0  0  0  0  0
  -11.4760    0.4810   -3.4280 C   0  0  0  0  0  0  0  0  0  0  0  0
   -9.2150    1.6850   -6.1340 O   0  0  0  0  0  0  0  0  0  0  0  0
   -9.9380    2.1570   -7.2590 C   0  0  0  0  0  0  0  0  0  0  0  0
   -9.9950    3.5100   -7.1630 F   0  0  0  0  0  0  0  0  0  0  0  0
   -9.2390    1.8790   -8.3870 F   0  0  0  0  0  0  0  0  0  0  0  0
  -14.6110    6.8410    0.2270 O   0  0  0  0  0  0  0  0  0  0  0  0
  -15.5010    7.0110   -0.8750 C   0  0  0  0  0  0  0  0  0  0  0  0
  -18.4462    6.5498    3.2078 H   0  0  0  0  0  0  0  0  0  0  0  0
  -18.8524    7.3921    1.6742 H   0  0  0  0  0  0  0  0  0  0  0  0
  -18.5538    5.6208    1.6742 H   0  0  0  0  0  0  0  0  0  0  0  0
  -15.4276    2.7176    3.2918 H   0  0  0  0  0  0  0  0  0  0  0  0
  -17.0991    4.5241    3.3514 H   0  0  0  0  0  0  0  0  0  0  0  0
  -13.0220    4.5011   -0.7972 H   0  0  0  0  0  0  0  0  0  0  0  0
  -12.3033    5.7436    0.3193 H   0  0  0  0  0  0  0  0  0  0  0  0
   -9.7789    4.1752   -1.5857 H   0  0  0  0  0  0  0  0  0  0  0  0
   -8.9512    3.3855   -4.2514 H   0  0  0  0  0  0  0  0  0  0  0  0
  -10.9769   -0.2797   -5.3974 H   0  0  0  0  0  0  0  0  0  0  0  0
  -12.1762   -0.3356   -3.1980 H   0  0  0  0  0  0  0  0  0  0  0  0
  -10.9344    1.6922   -7.2915 H   0  0  0  0  0  0  0  0  0  0  0  0
  -16.5166    7.2050   -0.4996 H   0  0  0  0  0  0  0  0  0  0  0  0
  -15.1678    7.8617   -1.4876 H   0  0  0  0  0  0  0  0  0  0  0  0
  -15.5048    6.0973   -1.4876 H   0  0  0  0  0  0  0  0  0  0  0  0
  1  2  1  0
  2  3  1  0
  3  4  2  0
  4  5  1  0
  5  6  2  0
  6  7  1  0
  7  8  2  0
  5  9  1  0
  9 10  1  0
 10 11  2  0
 10 12  1  0
 12 13  2  0
 13 14  1  0
 14 15  2  0
 15 16  1  0
 15 17  1  0
 17 18  2  0
 18 19  1  0
 19 20  2  0
 18 21  1  0
 21 22  1  0
 22 23  1  0
 22 24  1  0
  4 25  1  0
 25 26  1  0
  8  3  1  0
 16 12  1  0
 20 14  1  0
  1 27  1  0
  1 28  1  0
  1 29  1  0
  7 30  1  0
  8 31  1  0
  9 32  1  0
  9 33  1  0
 16 34  1  0
 17 35  1  0
 19 36  1  0
 20 37  1  0
 22 38  1  0
 26 39  1  0
 26 40  1  0
 26 41  1  0
M  END
