
     RDKit          3D

 54 56  0  0  0  0  0  0  0  0999 V2000
  -16.0470   -3.6570   10.0470 C   0  0  0  0  0  0  0  0  0  0  0  0
  -17.3120   -2.8430    9.9830 C   0  0  0  0  0  0  0  0  0  0  0  0
  -18.1650   -2.8930   10.8620 O   0  0  0  0  0  0  0  0  0  0  0  0
  -17.4030   -2.0360    8.8760 N   0  0  0  0  0  0  0  0  0  0  0  0
  -18.5220   -1.1280    8.6640 C   0  0  1  0  0  0  0  0  0  0  0  0
  -18.1500    0.1410    7.8560 C   0  0  0  0  0  0  0  0  0  0  0  0
  -18.3490    0.0670    6.3420 C   0  0  0  0  0  0  0  0  0  0  0  0
  -17.7990   -1.2160    5.7800 C   0  0  0  0  0  0  0  0  0  0  0  0
  -16.6090   -1.1940    5.0300 C   0  0  0  0  0  0  0  0  0  0  0  0
  -16.0360   -2.3720    4.5390 C   0  0  0  0  0  0  0  0  0  0  0  0
  -16.6370   -3.6020    4.8520 C   0  0  0  0  0  0  0  0  0  0  0  0
  -17.8290   -3.6280    5.6020 C   0  0  0  0  0  0  0  0  0  0  0  0
  -18.4430   -2.4380    6.0570 C   0  0  0  0  0  0  0  0  0  0  0  0
  -19.7330   -2.4620    6.8490 C   0  0  0  0  0  0  0  0  0  0  0  0
  -20.7530   -2.9730    6.1210 C   0  0  0  0  0  0  0  0  0  0  0  0
  -22.0600   -3.1870    6.3350 C   0  0  0  0  0  0  0  0  0  0  0  0
  -22.7570   -3.0710    7.4730 C   0  0  0  0  0  0  0  0  0  0  0  0
  -22.0110   -2.8340    8.7820 C   0  0  0  0  0  0  0  0  0  0  0  0
  -22.3960   -3.4090    9.7850 O   0  0  0  0  0  0  0  0  0  0  0  0
  -20.7650   -1.9950    8.9610 C   0  0  0  0  0  0  0  0  0  0  0  0
  -19.7280   -1.9240    8.1030 C   0  0  0  0  0  0  0  0  0  0  0  0
  -24.1230   -3.2320    7.6170 O   0  0  0  0  0  0  0  0  0  0  0  0
  -24.9290   -2.0810    7.8210 C   0  0  0  0  0  0  0  0  0  0  0  0
  -18.4490   -4.8400    5.8290 O   0  0  0  0  0  0  0  0  0  0  0  0
  -18.0840   -5.3780    7.0990 C   0  0  0  0  0  0  0  0  0  0  0  0
  -16.1790   -4.8190    4.4030 O   0  0  0  0  0  0  0  0  0  0  0  0
  -15.0400   -5.3200    5.0980 C   0  0  0  0  0  0  0  0  0  0  0  0
  -14.9080   -2.4000    3.7620 O   0  0  0  0  0  0  0  0  0  0  0  0
  -14.8390   -1.5010    2.6620 C   0  0  0  0  0  0  0  0  0  0  0  0
  -15.7760   -3.8314   11.0987 H   0  0  0  0  0  0  0  0  0  0  0  0
  -16.2064   -4.6224    9.5445 H   0  0  0  0  0  0  0  0  0  0  0  0
  -15.2344   -3.1119    9.5445 H   0  0  0  0  0  0  0  0  0  0  0  0
  -16.6535   -2.0740    8.1705 H   0  0  0  0  0  0  0  0  0  0  0  0
  -18.8251   -0.7094    9.6350 H   0  0  0  0  0  0  0  0  0  0  0  0
  -18.7656    0.9706    8.2341 H   0  0  0  0  0  0  0  0  0  0  0  0
  -17.0677    0.2727    8.0018 H   0  0  0  0  0  0  0  0  0  0  0  0
  -19.4246    0.1239    6.1188 H   0  0  0  0  0  0  0  0  0  0  0  0
  -17.8105    0.9074    5.8797 H   0  0  0  0  0  0  0  0  0  0  0  0
  -16.1190   -0.2307    4.8254 H   0  0  0  0  0  0  0  0  0  0  0  0
  -20.4352   -3.2873    5.1159 H   0  0  0  0  0  0  0  0  0  0  0  0
  -22.6393   -3.5011    5.4543 H   0  0  0  0  0  0  0  0  0  0  0  0
  -20.6993   -1.3870    9.8754 H   0  0  0  0  0  0  0  0  0  0  0  0
  -25.0517   -1.9058    8.9000 H   0  0  0  0  0  0  0  0  0  0  0  0
  -24.4442   -1.2076    7.3605 H   0  0  0  0  0  0  0  0  0  0  0  0
  -25.9156   -2.2379    7.3605 H   0  0  0  0  0  0  0  0  0  0  0  0
  -18.5085   -4.7523    7.8980 H   0  0  0  0  0  0  0  0  0  0  0  0
  -18.4743   -6.4025    7.1891 H   0  0  0  0  0  0  0  0  0  0  0  0
  -16.9878   -5.3940    7.1891 H   0  0  0  0  0  0  0  0  0  0  0  0
  -15.2099   -5.2453    6.1822 H   0  0  0  0  0  0  0  0  0  0  0  0
  -14.8771   -6.3728    4.8241 H   0  0  0  0  0  0  0  0  0  0  0  0
  -14.1539   -4.7286    4.8241 H   0  0  0  0  0  0  0  0  0  0  0  0
  -14.7598   -0.4695    3.0359 H   0  0  0  0  0  0  0  0  0  0  0  0
  -13.9564   -1.7378    2.0497 H   0  0  0  0  0  0  0  0  0  0  0  0
  -15.7474   -1.6004    2.0497 H   0  0  0  0  0  0  0  0  0  0  0  0
  1  2  1  0
  2  3  2  0
  2  4  1  0
  4  5  1  0
  5  6  1  0
  6  7  1  0
  7  8  1  0
  8  9  2  0
  9 10  1  0
 10 11  2  0
 11 12  1  0
 12 13  2  0
 13 14  1  0
 14 15  2  0
 15 16  1  0
 16 17  2  0
 17 18  1  0
 18 19  2  0
 18 20  1  0
 20 21  2  0
 17 22  1  0
 22 23  1  0
 12 24  1  0
 24 25  1  0
 11 26  1  0
 26 27  1  0
 10 28  1  0
 28 29  1  0
 21  5  1  0
 13  8  1  0
 21 14  1  0
  1 30  1  0
  1 31  1  0
  1 32  1  0
  4 33  1  0
  5 34  1  1
  6 35  1  0
  6 36  1  0
  7 37  1  0
  7 38  1  0
  9 39  1  0
 15 40  1  0
 16 41  1  0
 20 42  1  0
 23 43  1  0
 23 44  1  0
 23 45  1  0
 25 46  1  0
 25 47  1  0
 25 48  1  0
 27 49  1  0
 27 50  1  0
 27 51  1  0
 29 52  1  0
 29 53  1  0
 29 54  1  0
M  END
