
     RDKit          3D

 39 42  0  0  0  0  0  0  0  0999 V2000
   -6.3920    4.0550    1.3080 C   0  0  0  0  0  0  0  0  0  0  0  0
   -7.4730    3.5660    2.2260 C   0  0  0  0  0  0  0  0  0  0  0  0
   -7.8190    4.0360    0.8420 C   0  0  0  0  0  0  0  0  0  0  0  0
   -8.2500    3.0980   -0.1840 N   0  0  0  0  0  0  0  0  0  0  0  0
   -9.5730    3.1450   -0.6600 C   0  0  0  0  0  0  0  0  0  0  0  0
  -10.6330    3.5150    0.1850 C   0  0  0  0  0  0  0  0  0  0  0  0
  -11.8960    3.5290   -0.3750 C   0  0  0  0  0  0  0  0  0  0  0  0
  -12.2240    3.2380   -1.6420 N   0  0  0  0  0  0  0  0  0  0  0  0
  -11.1520    2.8800   -2.3650 C   0  0  0  0  0  0  0  0  0  0  0  0
   -9.8760    2.8370   -1.9510 N   0  0  0  0  0  0  0  0  0  0  0  0
  -11.3760    2.5670   -3.6910 N   0  0  0  0  0  0  0  0  0  0  0  0
  -12.7300    3.9090    0.6420 N   0  0  0  0  0  0  0  0  0  0  0  0
  -11.9510    4.1340    1.7480 C   0  0  0  0  0  0  0  0  0  0  0  0
  -10.6760    3.9040    1.5100 N   0  0  0  0  0  0  0  0  0  0  0  0
  -14.1670    4.0820    0.5230 C   0  0  2  0  0  0  0  0  0  0  0  0
  -14.5480    5.4770    0.0020 C   0  0  0  0  0  0  0  0  0  0  0  0
  -15.8520    5.8560    0.7280 C   0  0  1  0  0  0  0  0  0  0  0  0
  -15.8200    4.9750    1.9420 C   0  0  0  0  0  0  0  0  0  0  0  0
  -14.9070    4.0040    1.8270 C   0  0  0  0  0  0  0  0  0  0  0  0
  -15.9360    7.3470    1.0550 C   0  0  0  0  0  0  0  0  0  0  0  0
  -17.2890    7.7890    1.0290 O   0  0  0  0  0  0  0  0  0  0  0  0
   -5.8920    5.0139    1.5091 H   0  0  0  0  0  0  0  0  0  0  0  0
   -5.4455    3.6402    0.9311 H   0  0  0  0  0  0  0  0  0  0  0  0
   -7.5399    2.4970    2.4766 H   0  0  0  0  0  0  0  0  0  0  0  0
   -7.8071    3.8250    3.2415 H   0  0  0  0  0  0  0  0  0  0  0  0
   -8.5154    4.7796    0.4273 H   0  0  0  0  0  0  0  0  0  0  0  0
   -7.5894    2.4029   -0.5599 H   0  0  0  0  0  0  0  0  0  0  0  0
  -10.5896    2.2854   -4.2936 H   0  0  0  0  0  0  0  0  0  0  0  0
  -12.3295    2.6151   -4.0775 H   0  0  0  0  0  0  0  0  0  0  0  0
  -12.3446    4.4673    2.7196 H   0  0  0  0  0  0  0  0  0  0  0  0
  -14.4436    3.2629   -0.1571 H   0  0  0  0  0  0  0  0  0  0  0  0
  -13.7550    6.2026    0.2357 H   0  0  0  0  0  0  0  0  0  0  0  0
  -14.6782    5.4789   -1.0903 H   0  0  0  0  0  0  0  0  0  0  0  0
  -16.7530    5.6987    0.1169 H   0  0  0  0  0  0  0  0  0  0  0  0
  -16.4685    5.1110    2.8200 H   0  0  0  0  0  0  0  0  0  0  0  0
  -14.7207    3.2398    2.5959 H   0  0  0  0  0  0  0  0  0  0  0  0
  -15.5176    7.5217    2.0572 H   0  0  0  0  0  0  0  0  0  0  0  0
  -15.3643    7.9086    0.3015 H   0  0  0  0  0  0  0  0  0  0  0  0
  -17.6188    7.8968    1.9562 H   0  0  0  0  0  0  0  0  0  0  0  0
  1  2  1  0
  2  3  1  0
  3  4  1  0
  4  5  1  0
  5  6  2  0
  6  7  1  0
  7  8  2  0
  8  9  1  0
  9 10  2  0
  9 11  1  0
  7 12  1  0
 12 13  1  0
 13 14  2  0
 12 15  1  0
 15 16  1  0
 16 17  1  0
 17 18  1  0
 18 19  2  0
 17 20  1  0
 20 21  1  0
  3  1  1  0
 10  5  1  0
 14  6  1  0
 19 15  1  0
  1 22  1  0
  1 23  1  0
  2 24  1  0
  2 25  1  0
  3 26  1  0
  4 27  1  0
 11 28  1  0
 11 29  1  0
 13 30  1  0
 15 31  1  6
 16 32  1  0
 16 33  1  0
 17 34  1  6
 18 35  1  0
 19 36  1  0
 20 37  1  0
 20 38  1  0
 21 39  1  0
M  END
