
     RDKit          3D

 49 52  0  0  0  0  0  0  0  0999 V2000
  -10.1220    1.3630   -6.1260 C   0  0  0  0  0  0  0  0  0  0  0  0
  -10.4950    1.9490   -4.8470 N   0  0  0  0  0  0  0  0  0  0  0  0
  -11.5050    1.1330   -4.1480 C   0  0  0  0  0  0  0  0  0  0  0  0
  -11.5660    1.3300   -2.6060 C   0  0  0  0  0  0  0  0  0  0  0  0
  -11.1020    2.6560   -2.1790 N   0  0  0  0  0  0  0  0  0  0  0  0
   -9.7190    2.8900   -2.6530 C   0  0  0  0  0  0  0  0  0  0  0  0
   -9.3370    2.1840   -3.9820 C   0  0  0  0  0  0  0  0  0  0  0  0
  -11.2120    2.8990   -0.7380 C   0  0  0  0  0  0  0  0  0  0  0  0
  -12.6630    2.9560   -0.2460 C   0  0  0  0  0  0  0  0  0  0  0  0
  -12.7610    3.8040    1.0300 C   0  0  0  0  0  0  0  0  0  0  0  0
  -14.1590    3.9260    1.5070 N   0  0  0  0  0  0  0  0  0  0  0  0
  -14.6770    2.8460    2.2790 C   0  0  0  0  0  0  0  0  0  0  0  0
  -14.0700    1.5690    2.2950 C   0  0  0  0  0  0  0  0  0  0  0  0
  -14.5780    0.4970    3.0400 C   0  0  0  0  0  0  0  0  0  0  0  0
  -15.7230    0.6640    3.7980 C   0  0  0  0  0  0  0  0  0  0  0  0
  -16.3550    1.9020    3.8040 C   0  0  0  0  0  0  0  0  0  0  0  0
  -15.8480    2.9830    3.0530 C   0  0  0  0  0  0  0  0  0  0  0  0
  -16.7610    4.5000    3.1960 S   0  0  0  0  0  0  0  0  0  0  0  0
  -16.0150    5.5090    1.9380 C   0  0  0  0  0  0  0  0  0  0  0  0
  -14.8290    5.1600    1.2570 C   0  0  0  0  0  0  0  0  0  0  0  0
  -14.3630    6.0890    0.2990 C   0  0  0  0  0  0  0  0  0  0  0  0
  -15.0260    7.2940    0.0450 C   0  0  0  0  0  0  0  0  0  0  0  0
  -16.1830    7.6200    0.7310 C   0  0  0  0  0  0  0  0  0  0  0  0
  -16.6750    6.7270    1.6750 C   0  0  0  0  0  0  0  0  0  0  0  0
  -14.4020    8.3820   -1.1340 Cl  0  0  0  0  0  0  0  0  0  0  0  0
   -9.5387    0.4466   -5.9532 H   0  0  0  0  0  0  0  0  0  0  0  0
  -11.0304    1.1175   -6.6957 H   0  0  0  0  0  0  0  0  0  0  0  0
   -9.5150    2.0821   -6.6957 H   0  0  0  0  0  0  0  0  0  0  0  0
  -12.4922    1.3854   -4.5624 H   0  0  0  0  0  0  0  0  0  0  0  0
  -11.2147    0.0844   -4.3099 H   0  0  0  0  0  0  0  0  0  0  0  0
  -12.6075    1.2001   -2.2768 H   0  0  0  0  0  0  0  0  0  0  0  0
  -10.8963    0.5847   -2.1520 H   0  0  0  0  0  0  0  0  0  0  0  0
   -9.5887    3.9729   -2.7954 H   0  0  0  0  0  0  0  0  0  0  0  0
   -9.0605    2.4603   -1.8838 H   0  0  0  0  0  0  0  0  0  0  0  0
   -8.6161    2.8154   -4.5220 H   0  0  0  0  0  0  0  0  0  0  0  0
   -8.9066    1.2042   -3.7274 H   0  0  0  0  0  0  0  0  0  0  0  0
  -10.6936    2.0878   -0.2057 H   0  0  0  0  0  0  0  0  0  0  0  0
  -10.7586    3.8806   -0.5357 H   0  0  0  0  0  0  0  0  0  0  0  0
  -13.2939    3.4034   -1.0282 H   0  0  0  0  0  0  0  0  0  0  0  0
  -13.0054    1.9346   -0.0235 H   0  0  0  0  0  0  0  0  0  0  0  0
  -12.1563    3.3316    1.8182 H   0  0  0  0  0  0  0  0  0  0  0  0
  -12.3910    4.8135    0.7975 H   0  0  0  0  0  0  0  0  0  0  0  0
  -13.1604    1.4107    1.6971 H   0  0  0  0  0  0  0  0  0  0  0  0
  -14.0668   -0.4768    3.0223 H   0  0  0  0  0  0  0  0  0  0  0  0
  -16.1278   -0.1715    4.3880 H   0  0  0  0  0  0  0  0  0  0  0  0
  -17.2660    2.0411    4.4046 H   0  0  0  0  0  0  0  0  0  0  0  0
  -13.4481    5.8564   -0.2657 H   0  0  0  0  0  0  0  0  0  0  0  0
  -16.7035    8.5685    0.5326 H   0  0  0  0  0  0  0  0  0  0  0  0
  -17.5943    6.9742    2.2261 H   0  0  0  0  0  0  0  0  0  0  0  0
  1  2  1  0
  2  3  1  0
  3  4  1  0
  4  5  1  0
  5  6  1  0
  6  7  1  0
  5  8  1  0
  8  9  1  0
  9 10  1  0
 10 11  1  0
 11 12  1  0
 12 13  2  0
 13 14  1  0
 14 15  2  0
 15 16  1  0
 16 17  2  0
 17 18  1  0
 18 19  1  0
 19 20  2  0
 20 21  1  0
 21 22  2  0
 22 23  1  0
 23 24  2  0
 22 25  1  0
  7  2  1  0
 20 11  1  0
 17 12  1  0
 24 19  1  0
  1 26  1  0
  1 27  1  0
  1 28  1  0
  3 29  1  0
  3 30  1  0
  4 31  1  0
  4 32  1  0
  6 33  1  0
  6 34  1  0
  7 35  1  0
  7 36  1  0
  8 37  1  0
  8 38  1  0
  9 39  1  0
  9 40  1  0
 10 41  1  0
 10 42  1  0
 13 43  1  0
 14 44  1  0
 15 45  1  0
 16 46  1  0
 21 47  1  0
 23 48  1  0
 24 49  1  0
M  END
