
     RDKit          3D

 40 42  0  0  0  0  0  0  0  0999 V2000
   -8.5100    4.7440    4.7490 C   0  0  0  0  0  0  0  0  0  0  0  0
   -9.1930    4.3420    3.4760 C   0  0  0  0  0  0  0  0  0  0  0  0
   -8.4550    4.1710    2.2990 C   0  0  0  0  0  0  0  0  0  0  0  0
   -9.0940    3.8260    1.1050 C   0  0  0  0  0  0  0  0  0  0  0  0
  -10.4850    3.6720    1.0660 C   0  0  0  0  0  0  0  0  0  0  0  0
  -11.2240    3.8400    2.2430 C   0  0  0  0  0  0  0  0  0  0  0  0
  -10.5830    4.1840    3.4360 C   0  0  0  0  0  0  0  0  0  0  0  0
  -11.1560    3.3000   -0.1760 C   0  0  0  0  0  0  0  0  0  0  0  0
  -10.6270    2.5340   -1.1980 C   0  0  0  0  0  0  0  0  0  0  0  0
  -11.5580    2.5860   -2.2550 C   0  0  0  0  0  0  0  0  0  0  0  0
  -12.6180    3.3360   -1.9140 N   0  0  0  0  0  0  0  0  0  0  0  0
  -12.4170    3.7040   -0.6150 N   0  0  0  0  0  0  0  0  0  0  0  0
  -13.4720    4.3900    0.0690 C   0  0  0  0  0  0  0  0  0  0  0  0
  -14.2630    3.6720    0.9870 C   0  0  0  0  0  0  0  0  0  0  0  0
  -15.3040    4.2970    1.6800 C   0  0  0  0  0  0  0  0  0  0  0  0
  -15.5470    5.6540    1.4740 C   0  0  0  0  0  0  0  0  0  0  0  0
  -14.7690    6.3850    0.5750 C   0  0  0  0  0  0  0  0  0  0  0  0
  -13.7280    5.7550   -0.1180 C   0  0  0  0  0  0  0  0  0  0  0  0
  -16.8820    6.4430    2.3250 S   0  0  0  0  0  0  0  0  0  0  0  0
  -17.9800    5.5140    2.4540 O   0  0  0  0  0  0  0  0  0  0  0  0
  -16.3580    7.1830    3.4490 O   0  0  0  0  0  0  0  0  0  0  0  0
  -17.3790    7.5890    1.2040 N   0  0  0  0  0  0  0  0  0  0  0  0
  -11.4210    1.9400   -3.6080 C   0  0  0  0  0  0  0  0  0  0  0  0
  -11.4980    0.5850   -3.5490 F   0  0  0  0  0  0  0  0  0  0  0  0
  -12.4060    2.3420   -4.4600 F   0  0  0  0  0  0  0  0  0  0  0  0
  -10.2450    2.2470   -4.2150 F   0  0  0  0  0  0  0  0  0  0  0  0
   -9.1017    4.3957    5.6084 H   0  0  0  0  0  0  0  0  0  0  0  0
   -7.5080    4.2916    4.7862 H   0  0  0  0  0  0  0  0  0  0  0  0
   -8.4192    5.8396    4.7862 H   0  0  0  0  0  0  0  0  0  0  0  0
   -7.3638    4.3092    2.3140 H   0  0  0  0  0  0  0  0  0  0  0  0
   -8.5010    3.6746    0.1910 H   0  0  0  0  0  0  0  0  0  0  0  0
  -12.3150    3.7005    2.2286 H   0  0  0  0  0  0  0  0  0  0  0  0
  -11.1756    4.3318    4.3509 H   0  0  0  0  0  0  0  0  0  0  0  0
   -9.6700    1.9918   -1.1883 H   0  0  0  0  0  0  0  0  0  0  0  0
  -14.0589    2.6052    1.1610 H   0  0  0  0  0  0  0  0  0  0  0  0
  -15.9262    3.7226    2.3821 H   0  0  0  0  0  0  0  0  0  0  0  0
  -14.9731    7.4534    0.4112 H   0  0  0  0  0  0  0  0  0  0  0  0
  -13.1062    6.3363   -0.8148 H   0  0  0  0  0  0  0  0  0  0  0  0
  -17.7387    8.4185    1.6974 H   0  0  0  0  0  0  0  0  0  0  0  0
  -16.5801    7.8605    0.6133 H   0  0  0  0  0  0  0  0  0  0  0  0
  1  2  1  0
  2  3  2  0
  3  4  1  0
  4  5  2  0
  5  6  1  0
  6  7  2  0
  5  8  1  0
  8  9  2  0
  9 10  1  0
 10 11  2  0
 11 12  1  0
 12 13  1  0
 13 14  2  0
 14 15  1  0
 15 16  2  0
 16 17  1  0
 17 18  2  0
 16 19  1  0
 19 20  2  0
 19 21  2  0
 19 22  1  0
 10 23  1  0
 23 24  1  0
 23 25  1  0
 23 26  1  0
  7  2  1  0
 12  8  1  0
 18 13  1  0
  1 27  1  0
  1 28  1  0
  1 29  1  0
  3 30  1  0
  4 31  1  0
  6 32  1  0
  7 33  1  0
  9 34  1  0
 14 35  1  0
 15 36  1  0
 17 37  1  0
 18 38  1  0
 22 39  1  0
 22 40  1  0
M  END
