
     RDKit          3D

 32 34  0  0  0  0  0  0  0  0999 V2000
  -14.4970    4.3770    1.4690 C   0  0  0  0  0  0  0  0  0  0  0  0
  -15.6620    4.9640    1.6550 N   0  0  0  0  0  0  0  0  0  0  0  0
  -15.5850    6.1360    0.9340 C   0  0  0  0  0  0  0  0  0  0  0  0
  -16.4860    7.1940    0.7340 C   0  0  0  0  0  0  0  0  0  0  0  0
  -16.0950    8.2460   -0.0160 N   0  0  0  0  0  0  0  0  0  0  0  0
  -14.8620    8.2230   -0.5660 C   0  0  0  0  0  0  0  0  0  0  0  0
  -13.9180    7.2610   -0.4550 N   0  0  0  0  0  0  0  0  0  0  0  0
  -14.3530    6.2500    0.3120 C   0  0  0  0  0  0  0  0  0  0  0  0
  -13.6790    5.1110    0.6550 N   0  0  0  0  0  0  0  0  0  0  0  0
  -12.3380    4.7910    0.2230 C   0  0  1  0  0  0  0  0  0  0  0  0
  -11.5310    3.9070    1.1890 C   0  0  2  0  0  0  0  0  0  0  0  0
  -10.6180    3.1720    0.2190 C   0  0  1  0  0  0  0  0  0  0  0  0
  -11.5720    2.9210   -0.9490 C   0  0  1  0  0  0  0  0  0  0  0  0
  -12.3680    4.1270   -1.0700 O   0  0  0  0  0  0  0  0  0  0  0  0
  -10.8980    2.6260   -2.2840 C   0  0  0  0  0  0  0  0  0  0  0  0
  -10.2030    3.7890   -2.7350 O   0  0  0  0  0  0  0  0  0  0  0  0
   -9.5040    3.9930   -0.1330 O   0  0  0  0  0  0  0  0  0  0  0  0
  -12.3530    2.9500    1.8680 O   0  0  0  0  0  0  0  0  0  0  0  0
  -14.5240    9.2900   -1.3070 F   0  0  0  0  0  0  0  0  0  0  0  0
  -17.7590    7.2170    1.2880 N   0  0  0  0  0  0  0  0  0  0  0  0
  -14.2159    3.4117    1.9152 H   0  0  0  0  0  0  0  0  0  0  0  0
  -11.8281    5.7646    0.1777 H   0  0  0  0  0  0  0  0  0  0  0  0
  -11.0321    4.4840    1.9816 H   0  0  0  0  0  0  0  0  0  0  0  0
  -10.1597    2.2491    0.6040 H   0  0  0  0  0  0  0  0  0  0  0  0
  -12.1559    2.0152   -0.7286 H   0  0  0  0  0  0  0  0  0  0  0  0
  -10.1845    1.7981   -2.1592 H   0  0  0  0  0  0  0  0  0  0  0  0
  -11.6608    2.3450   -3.0250 H   0  0  0  0  0  0  0  0  0  0  0  0
   -9.8912    4.3108   -1.9536 H   0  0  0  0  0  0  0  0  0  0  0  0
   -9.0613    4.3192    0.6902 H   0  0  0  0  0  0  0  0  0  0  0  0
  -12.2541    3.0651    2.8463 H   0  0  0  0  0  0  0  0  0  0  0  0
  -18.3832    8.0171    1.1113 H   0  0  0  0  0  0  0  0  0  0  0  0
  -18.0791    6.4340    1.8757 H   0  0  0  0  0  0  0  0  0  0  0  0
  1  2  2  0
  2  3  1  0
  3  4  2  0
  4  5  1  0
  5  6  2  0
  6  7  1  0
  7  8  2  0
  8  9  1  0
  9 10  1  0
 10 11  1  0
 11 12  1  0
 12 13  1  0
 13 14  1  0
 13 15  1  0
 15 16  1  0
 12 17  1  0
 11 18  1  0
  6 19  1  0
  4 20  1  0
  9  1  1  0
  8  3  1  0
 14 10  1  0
  1 21  1  0
 10 22  1  6
 11 23  1  1
 12 24  1  1
 13 25  1  6
 15 26  1  0
 15 27  1  0
 16 28  1  0
 17 29  1  0
 18 30  1  0
 20 31  1  0
 20 32  1  0
M  END
