
     RDKit          3D

 51 52  0  0  0  0  0  0  0  0999 V2000
  -14.9030   -3.9670   -3.3160 C   0  0  0  0  0  0  0  0  0  0  0  0
  -15.0680   -3.5010   -1.9490 N   0  0  0  0  0  0  0  0  0  0  0  0
  -16.4350   -3.3870   -1.4700 C   0  0  0  0  0  0  0  0  0  0  0  0
  -14.0260   -3.0990   -1.1150 C   0  0  0  0  0  0  0  0  0  0  0  0
  -14.2080   -2.8330    0.0750 O   0  0  0  0  0  0  0  0  0  0  0  0
  -12.6070   -3.0480   -1.7030 C   0  0  0  0  0  0  0  0  0  0  0  0
  -12.1500   -1.7640   -2.1270 O   0  0  0  0  0  0  0  0  0  0  0  0
  -11.1960   -1.7910   -3.1060 C   0  0  0  0  0  0  0  0  0  0  0  0
  -10.4940   -2.7550   -3.3660 O   0  0  0  0  0  0  0  0  0  0  0  0
  -11.1710   -0.4460   -3.8010 C   0  0  0  0  0  0  0  0  0  0  0  0
  -11.0510    0.7340   -2.8670 C   0  0  0  0  0  0  0  0  0  0  0  0
   -9.7890    1.1960   -2.4630 C   0  0  0  0  0  0  0  0  0  0  0  0
   -9.6780    2.2840   -1.5980 C   0  0  0  0  0  0  0  0  0  0  0  0
  -10.8330    2.9150   -1.1430 C   0  0  0  0  0  0  0  0  0  0  0  0
  -12.0960    2.4550   -1.5060 C   0  0  0  0  0  0  0  0  0  0  0  0
  -12.2040    1.3660   -2.3730 C   0  0  0  0  0  0  0  0  0  0  0  0
  -10.6940    3.9690   -0.2370 O   0  0  0  0  0  0  0  0  0  0  0  0
  -11.2690    3.7380    0.9990 C   0  0  0  0  0  0  0  0  0  0  0  0
  -10.7650    3.1680    1.9560 O   0  0  0  0  0  0  0  0  0  0  0  0
  -12.6520    4.2900    1.0210 C   0  0  0  0  0  0  0  0  0  0  0  0
  -13.7060    3.6750    1.7030 C   0  0  0  0  0  0  0  0  0  0  0  0
  -14.9870    4.2430    1.6850 C   0  0  0  0  0  0  0  0  0  0  0  0
  -15.2470    5.4400    1.0080 C   0  0  0  0  0  0  0  0  0  0  0  0
  -14.1850    6.0320    0.3050 C   0  0  0  0  0  0  0  0  0  0  0  0
  -12.9010    5.4730    0.3160 C   0  0  0  0  0  0  0  0  0  0  0  0
  -16.5240    6.0280    0.9180 N   0  0  0  0  0  0  0  0  0  0  0  0
  -17.2060    6.7310    1.8640 C   0  0  0  0  0  0  0  0  0  0  0  0
  -16.8220    7.0470    3.0470 N   0  0  0  0  0  0  0  0  0  0  0  0
  -18.4280    7.1040    1.4080 N   0  0  0  0  0  0  0  0  0  0  0  0
  -14.5359   -5.0039   -3.3081 H   0  0  0  0  0  0  0  0  0  0  0  0
  -15.8708   -3.9246   -3.8372 H   0  0  0  0  0  0  0  0  0  0  0  0
  -14.1775   -3.3251   -3.8372 H   0  0  0  0  0  0  0  0  0  0  0  0
  -16.4393   -3.3866   -0.3700 H   0  0  0  0  0  0  0  0  0  0  0  0
  -16.8757   -2.4490   -1.8387 H   0  0  0  0  0  0  0  0  0  0  0  0
  -17.0250   -4.2391   -1.8387 H   0  0  0  0  0  0  0  0  0  0  0  0
  -11.9111   -3.4158   -0.9346 H   0  0  0  0  0  0  0  0  0  0  0  0
  -12.6412   -3.6653   -2.6128 H   0  0  0  0  0  0  0  0  0  0  0  0
  -10.3127   -0.4296   -4.4888 H   0  0  0  0  0  0  0  0  0  0  0  0
  -12.1359   -0.3410   -4.3187 H   0  0  0  0  0  0  0  0  0  0  0  0
   -8.8809    0.6963   -2.8313 H   0  0  0  0  0  0  0  0  0  0  0  0
   -8.6877    2.6404   -1.2781 H   0  0  0  0  0  0  0  0  0  0  0  0
  -12.9995    2.9446   -1.1137 H   0  0  0  0  0  0  0  0  0  0  0  0
  -13.1979    1.0008   -2.6710 H   0  0  0  0  0  0  0  0  0  0  0  0
  -13.5290    2.7409    2.2563 H   0  0  0  0  0  0  0  0  0  0  0  0
  -15.8070    3.7364    2.2151 H   0  0  0  0  0  0  0  0  0  0  0  0
  -14.3656    6.9544   -0.2664 H   0  0  0  0  0  0  0  0  0  0  0  0
  -12.0845    5.9660   -0.2320 H   0  0  0  0  0  0  0  0  0  0  0  0
  -17.4456    7.5869    3.6639 H   0  0  0  0  0  0  0  0  0  0  0  0
  -15.8902    6.7608    3.3796 H   0  0  0  0  0  0  0  0  0  0  0  0
  -19.0610    7.6446    2.0145 H   0  0  0  0  0  0  0  0  0  0  0  0
  -18.7228    6.8466    0.4552 H   0  0  0  0  0  0  0  0  0  0  0  0
  1  2  1  0
  2  3  1  0
  2  4  1  0
  4  5  2  0
  4  6  1  0
  6  7  1  0
  7  8  1  0
  8  9  2  0
  8 10  1  0
 10 11  1  0
 11 12  2  0
 12 13  1  0
 13 14  2  0
 14 15  1  0
 15 16  2  0
 14 17  1  0
 17 18  1  0
 18 19  2  0
 18 20  1  0
 20 21  2  0
 21 22  1  0
 22 23  2  0
 23 24  1  0
 24 25  2  0
 23 26  1  0
 26 27  2  3
 27 28  1  0
 27 29  1  0
 16 11  1  0
 25 20  1  0
  1 30  1  0
  1 31  1  0
  1 32  1  0
  3 33  1  0
  3 34  1  0
  3 35  1  0
  6 36  1  0
  6 37  1  0
 10 38  1  0
 10 39  1  0
 12 40  1  0
 13 41  1  0
 15 42  1  0
 16 43  1  0
 21 44  1  0
 22 45  1  0
 24 46  1  0
 25 47  1  0
 28 48  1  0
 28 49  1  0
 29 50  1  0
 29 51  1  0
M  END
