
     RDKit          3D

 53 54  0  0  0  0  0  0  0  0999 V2000
  -12.2780   -1.9740   -2.3380 C   0  0  0  0  0  0  0  0  0  0  0  0
  -11.8980   -0.5320   -2.6240 C   0  0  0  0  0  0  0  0  0  0  0  0
  -12.3580    0.3180   -1.5630 O   0  0  0  0  0  0  0  0  0  0  0  0
  -12.5180    1.6250   -1.8910 C   0  0  0  0  0  0  0  0  0  0  0  0
  -13.4300    2.1000   -2.5480 O   0  0  0  0  0  0  0  0  0  0  0  0
  -11.3680    2.4070   -1.4010 C   0  0  0  0  0  0  0  0  0  0  0  0
  -10.2970    2.6930   -2.1730 C   0  0  0  0  0  0  0  0  0  0  0  0
   -9.2350    3.4090   -1.6310 N   0  0  0  0  0  0  0  0  0  0  0  0
   -9.1100    3.7170   -0.2860 C   0  0  0  0  0  0  0  0  0  0  0  0
  -10.1480    3.4800    0.5480 C   0  0  0  0  0  0  0  0  0  0  0  0
  -11.4490    2.8470    0.0580 C   0  0  0  0  0  0  0  0  0  0  0  0
  -12.6340    3.8000    0.2660 C   0  0  0  0  0  0  0  0  0  0  0  0
  -12.6580    5.0320   -0.4240 C   0  0  0  0  0  0  0  0  0  0  0  0
  -13.7180    5.9270   -0.2760 C   0  0  0  0  0  0  0  0  0  0  0  0
  -14.7790    5.6120    0.5650 C   0  0  0  0  0  0  0  0  0  0  0  0
  -14.7770    4.4030    1.2580 C   0  0  0  0  0  0  0  0  0  0  0  0
  -13.7160    3.5010    1.1140 C   0  0  0  0  0  0  0  0  0  0  0  0
  -13.8160    2.0340    2.0180 Cl  0  0  0  0  0  0  0  0  0  0  0  0
  -10.0980    3.7590    1.9960 C   0  0  0  0  0  0  0  0  0  0  0  0
  -11.0020    4.2990    2.6130 O   0  0  0  0  0  0  0  0  0  0  0  0
   -8.8920    3.3890    2.4950 O   0  0  0  0  0  0  0  0  0  0  0  0
   -8.5980    3.9630    3.7690 C   0  0  0  0  0  0  0  0  0  0  0  0
   -7.7710    4.2620    0.1410 C   0  0  0  0  0  0  0  0  0  0  0  0
  -10.1320    2.2310   -3.6100 C   0  0  0  0  0  0  0  0  0  0  0  0
   -8.9530    2.8450   -4.1570 O   0  0  0  0  0  0  0  0  0  0  0  0
   -8.4800    2.1330   -5.3010 C   0  0  0  0  0  0  0  0  0  0  0  0
   -9.4560    2.3540   -6.4620 C   0  0  0  0  0  0  0  0  0  0  0  0
   -9.3750    1.3160   -7.4880 N   0  0  0  0  0  0  0  0  0  0  0  0
  -12.3200   -2.1333   -1.2504 H   0  0  0  0  0  0  0  0  0  0  0  0
  -13.2631   -2.1878   -2.7782 H   0  0  0  0  0  0  0  0  0  0  0  0
  -11.5262   -2.6455   -2.7782 H   0  0  0  0  0  0  0  0  0  0  0  0
  -10.8038   -0.4531   -2.7052 H   0  0  0  0  0  0  0  0  0  0  0  0
  -12.3666   -0.2162   -3.5678 H   0  0  0  0  0  0  0  0  0  0  0  0
   -8.4942    3.7308   -2.2702 H   0  0  0  0  0  0  0  0  0  0  0  0
  -11.6097    1.9426    0.6631 H   0  0  0  0  0  0  0  0  0  0  0  0
  -11.8235    5.2914   -1.0921 H   0  0  0  0  0  0  0  0  0  0  0  0
  -13.7141    6.8807   -0.8241 H   0  0  0  0  0  0  0  0  0  0  0  0
  -15.6172    6.3145    0.6831 H   0  0  0  0  0  0  0  0  0  0  0  0
  -15.6166    4.1552    1.9241 H   0  0  0  0  0  0  0  0  0  0  0  0
   -8.9443    3.2868    4.5645 H   0  0  0  0  0  0  0  0  0  0  0  0
   -7.5122    4.1127    3.8619 H   0  0  0  0  0  0  0  0  0  0  0  0
   -9.1110    4.9316    3.8619 H   0  0  0  0  0  0  0  0  0  0  0  0
   -7.7174    4.2838    1.2395 H   0  0  0  0  0  0  0  0  0  0  0  0
   -6.9707    3.6181   -0.2524 H   0  0  0  0  0  0  0  0  0  0  0  0
   -7.6478    5.2818   -0.2524 H   0  0  0  0  0  0  0  0  0  0  0  0
  -10.0264    1.1364   -3.6375 H   0  0  0  0  0  0  0  0  0  0  0  0
  -11.0141    2.5190   -4.2008 H   0  0  0  0  0  0  0  0  0  0  0  0
   -7.4831    2.5044   -5.5809 H   0  0  0  0  0  0  0  0  0  0  0  0
   -8.4124    1.0596   -5.0702 H   0  0  0  0  0  0  0  0  0  0  0  0
  -10.4798    2.3691   -6.0600 H   0  0  0  0  0  0  0  0  0  0  0  0
   -9.1855    3.3073   -6.9395 H   0  0  0  0  0  0  0  0  0  0  0  0
   -9.3029    0.3926   -7.0373 H   0  0  0  0  0  0  0  0  0  0  0  0
  -10.2209    1.3465   -8.0748 H   0  0  0  0  0  0  0  0  0  0  0  0
  1  2  1  0
  2  3  1  0
  3  4  1  0
  4  5  2  0
  4  6  1  0
  6  7  2  0
  7  8  1  0
  8  9  1  0
  9 10  2  0
 10 11  1  0
 11 12  1  0
 12 13  2  0
 13 14  1  0
 14 15  2  0
 15 16  1  0
 16 17  2  0
 17 18  1  0
 10 19  1  0
 19 20  2  0
 19 21  1  0
 21 22  1  0
  9 23  1  0
  7 24  1  0
 24 25  1  0
 25 26  1  0
 26 27  1  0
 27 28  1  0
 11  6  1  0
 17 12  1  0
  1 29  1  0
  1 30  1  0
  1 31  1  0
  2 32  1  0
  2 33  1  0
  8 34  1  0
 11 35  1  0
 13 36  1  0
 14 37  1  0
 15 38  1  0
 16 39  1  0
 22 40  1  0
 22 41  1  0
 22 42  1  0
 23 43  1  0
 23 44  1  0
 23 45  1  0
 24 46  1  0
 24 47  1  0
 26 48  1  0
 26 49  1  0
 27 50  1  0
 27 51  1  0
 28 52  1  0
 28 53  1  0
M  END
