
     RDKit          3D

 65 67  0  0  0  0  0  0  0  0999 V2000
  -13.1270    3.2890   -1.1830 C   0  0  0  0  0  0  0  0  0  0  0  0
  -11.6150    3.2280   -0.9890 C   0  0  1  0  0  0  0  0  0  0  0  0
  -11.3140    3.4330    0.5000 C   0  0  0  0  0  0  0  0  0  0  0  0
  -11.9900    2.9690    1.4110 O   0  0  0  0  0  0  0  0  0  0  0  0
  -10.2240    4.2370    0.6560 O   0  0  0  0  0  0  0  0  0  0  0  0
   -9.2970    3.8530    1.6880 C   0  0  0  0  0  0  0  0  0  0  0  0
   -9.5130    4.7280    2.9170 C   0  0  0  0  0  0  0  0  0  0  0  0
   -7.8940    4.0480    1.1260 C   0  0  0  0  0  0  0  0  0  0  0  0
  -11.0410    1.9500   -1.4110 N   0  0  0  0  0  0  0  0  0  0  0  0
  -10.9670    1.5020   -2.9710 P   0  0  2  0  0  5  0  0  0  0  0  0
  -12.2460    1.6600   -3.7350 O   0  0  0  0  0  0  0  0  0  0  0  0
  -10.4170   -0.0140   -2.9650 O   0  0  0  0  0  0  0  0  0  0  0  0
  -11.2950   -1.0540   -3.3770 C   0  0  0  0  0  0  0  0  0  0  0  0
  -10.9820   -2.3160   -2.5760 C   0  0  2  0  0  0  0  0  0  0  0  0
  -10.8130   -3.5480   -3.4610 C   0  0  2  0  0  0  0  0  0  0  0  0
  -11.1560   -4.6660   -2.4870 C   0  0  1  0  0  0  0  0  0  0  0  0
  -12.1990   -4.0250   -1.5560 C   0  0  1  0  0  0  0  0  0  0  0  0
  -12.0770   -2.5940   -1.6740 O   0  0  0  0  0  0  0  0  0  0  0  0
  -13.6100   -4.3970   -1.7050 N   0  0  0  0  0  0  0  0  0  0  0  0
  -14.3540   -3.7960   -2.7070 C   0  0  0  0  0  0  0  0  0  0  0  0
  -15.6360   -4.0980   -2.9230 C   0  0  0  0  0  0  0  0  0  0  0  0
  -16.2800   -5.1080   -2.0730 C   0  0  0  0  0  0  0  0  0  0  0  0
  -17.4580   -5.4070   -2.2260 O   0  0  0  0  0  0  0  0  0  0  0  0
  -15.4830   -5.6690   -1.1200 N   0  0  0  0  0  0  0  0  0  0  0  0
  -14.1700   -5.3630   -0.8780 C   0  0  0  0  0  0  0  0  0  0  0  0
  -13.5770   -5.9230    0.0390 O   0  0  0  0  0  0  0  0  0  0  0  0
  -11.5080   -5.9950   -3.1270 C   0  0  0  0  0  0  0  0  0  0  0  0
  -10.0450   -4.9050   -1.7030 F   0  0  0  0  0  0  0  0  0  0  0  0
   -9.5020   -3.6930   -4.0020 O   0  0  0  0  0  0  0  0  0  0  0  0
   -9.7250    2.3300   -3.5990 O   0  0  0  0  0  0  0  0  0  0  0  0
   -9.3320    2.1900   -4.8990 C   0  0  0  0  0  0  0  0  0  0  0  0
   -7.9660    2.1260   -5.1580 C   0  0  0  0  0  0  0  0  0  0  0  0
   -7.5170    1.9730   -6.4690 C   0  0  0  0  0  0  0  0  0  0  0  0
   -8.4350    1.9040   -7.5170 C   0  0  0  0  0  0  0  0  0  0  0  0
   -9.8020    1.9920   -7.2540 C   0  0  0  0  0  0  0  0  0  0  0  0
  -10.2530    2.1430   -5.9420 C   0  0  0  0  0  0  0  0  0  0  0  0
  -13.6222    3.3090   -0.2010 H   0  0  0  0  0  0  0  0  0  0  0  0
  -13.3883    4.1984   -1.7440 H   0  0  0  0  0  0  0  0  0  0  0  0
  -13.4607    2.4036   -1.7440 H   0  0  0  0  0  0  0  0  0  0  0  0
  -11.1633    4.0134   -1.6128 H   0  0  0  0  0  0  0  0  0  0  0  0
   -9.4429    2.8054    1.9901 H   0  0  0  0  0  0  0  0  0  0  0  0
   -9.3645    4.1266    3.8260 H   0  0  0  0  0  0  0  0  0  0  0  0
   -8.7932    5.5597    2.9060 H   0  0  0  0  0  0  0  0  0  0  0  0
  -10.5372    5.1292    2.9060 H   0  0  0  0  0  0  0  0  0  0  0  0
   -7.1776    4.1476    1.9548 H   0  0  0  0  0  0  0  0  0  0  0  0
   -7.6222    3.1790    0.5088 H   0  0  0  0  0  0  0  0  0  0  0  0
   -7.8695    4.9582    0.5088 H   0  0  0  0  0  0  0  0  0  0  0  0
  -10.0710    1.9432   -1.0646 H   0  0  0  0  0  0  0  0  0  0  0  0
  -12.3366   -0.7508   -3.1952 H   0  0  0  0  0  0  0  0  0  0  0  0
  -11.1585   -1.2519   -4.4504 H   0  0  0  0  0  0  0  0  0  0  0  0
  -10.0386   -2.1242   -2.0439 H   0  0  0  0  0  0  0  0  0  0  0  0
  -11.4401   -3.5167   -4.3642 H   0  0  0  0  0  0  0  0  0  0  0  0
  -11.9487   -4.4305   -0.5646 H   0  0  0  0  0  0  0  0  0  0  0  0
  -13.8711   -3.0432   -3.3474 H   0  0  0  0  0  0  0  0  0  0  0  0
  -16.2008   -3.5989   -3.7242 H   0  0  0  0  0  0  0  0  0  0  0  0
  -15.9094   -6.3930   -0.5243 H   0  0  0  0  0  0  0  0  0  0  0  0
  -11.7052   -6.7394   -2.3415 H   0  0  0  0  0  0  0  0  0  0  0  0
  -12.4053   -5.8748   -3.7518 H   0  0  0  0  0  0  0  0  0  0  0  0
  -10.6689   -6.3347   -3.7518 H   0  0  0  0  0  0  0  0  0  0  0  0
   -8.8465   -3.7655   -3.2637 H   0  0  0  0  0  0  0  0  0  0  0  0
   -7.2435    2.1959   -4.3315 H   0  0  0  0  0  0  0  0  0  0  0  0
   -6.4389    1.9067   -6.6769 H   0  0  0  0  0  0  0  0  0  0  0  0
   -8.0808    1.7802   -8.5510 H   0  0  0  0  0  0  0  0  0  0  0  0
  -10.5251    1.9423   -8.0814 H   0  0  0  0  0  0  0  0  0  0  0  0
  -11.3299    2.2244   -5.7331 H   0  0  0  0  0  0  0  0  0  0  0  0
  1  2  1  0
  2  3  1  0
  3  4  2  0
  3  5  1  0
  5  6  1  0
  6  7  1  0
  6  8  1  0
  2  9  1  0
  9 10  1  0
 10 11  2  0
 10 12  1  1
 12 13  1  0
 13 14  1  0
 14 15  1  0
 15 16  1  0
 16 17  1  0
 17 18  1  0
 17 19  1  0
 19 20  1  0
 20 21  2  0
 21 22  1  0
 22 23  2  0
 22 24  1  0
 24 25  1  0
 25 26  2  0
 16 27  1  0
 16 28  1  1
 15 29  1  0
 10 30  1  0
 30 31  1  0
 31 32  2  0
 32 33  1  0
 33 34  2  0
 34 35  1  0
 35 36  2  0
 18 14  1  0
 25 19  1  0
 36 31  1  0
  1 37  1  0
  1 38  1  0
  1 39  1  0
  2 40  1  6
  6 41  1  0
  7 42  1  0
  7 43  1  0
  7 44  1  0
  8 45  1  0
  8 46  1  0
  8 47  1  0
  9 48  1  0
 13 49  1  0
 13 50  1  0
 14 51  1  1
 15 52  1  6
 17 53  1  1
 20 54  1  0
 21 55  1  0
 24 56  1  0
 27 57  1  0
 27 58  1  0
 27 59  1  0
 29 60  1  0
 32 61  1  0
 33 62  1  0
 34 63  1  0
 35 64  1  0
 36 65  1  0
M  END
