
     RDKit          3D

 56 58  0  0  0  0  0  0  0  0999 V2000
   -9.5890   -4.8240   -1.3580 C   0  0  0  0  0  0  0  0  0  0  0  0
   -9.1660   -4.0400   -2.5950 C   0  0  0  0  0  0  0  0  0  0  0  0
  -10.2820   -3.6990   -3.4930 N   0  0  0  0  0  0  0  0  0  0  0  0
  -11.2120   -4.8120   -3.7280 C   0  0  0  0  0  0  0  0  0  0  0  0
  -12.6460   -4.3930   -3.4270 C   0  0  0  0  0  0  0  0  0  0  0  0
  -10.9780   -2.4810   -3.0260 C   0  0  0  0  0  0  0  0  0  0  0  0
  -10.4210   -1.1270   -3.5130 C   0  0  0  0  0  0  0  0  0  0  0  0
  -10.8430   -0.0250   -2.6710 N   0  0  0  0  0  0  0  0  0  0  0  0
  -10.3390    1.2470   -2.8480 C   0  0  0  0  0  0  0  0  0  0  0  0
   -9.4740    1.5010   -3.6810 O   0  0  0  0  0  0  0  0  0  0  0  0
  -10.9750    2.2760   -2.0170 C   0  0  0  0  0  0  0  0  0  0  0  0
  -10.2870    3.0480   -1.0890 C   0  0  0  0  0  0  0  0  0  0  0  0
  -11.1790    3.9050   -0.4990 N   0  0  0  0  0  0  0  0  0  0  0  0
  -12.4360    3.7030   -1.0060 C   0  0  0  0  0  0  0  0  0  0  0  0
  -12.3600    2.6860   -1.9460 C   0  0  0  0  0  0  0  0  0  0  0  0
  -13.5070    2.1090   -2.7050 C   0  0  0  0  0  0  0  0  0  0  0  0
  -13.4730    4.5260   -0.5110 C   0  0  0  0  0  0  0  0  0  0  0  0
  -14.1330    4.2920    0.6330 C   0  0  0  0  0  0  0  0  0  0  0  0
  -15.2180    5.1350    1.1550 C   0  0  0  0  0  0  0  0  0  0  0  0
  -15.6190    4.5540    2.3650 C   0  0  0  0  0  0  0  0  0  0  0  0
  -16.6290    5.0780    3.1480 C   0  0  0  0  0  0  0  0  0  0  0  0
  -17.2580    6.2350    2.6850 C   0  0  0  0  0  0  0  0  0  0  0  0
  -16.8620    6.8200    1.4720 C   0  0  0  0  0  0  0  0  0  0  0  0
  -15.8400    6.2800    0.6920 C   0  0  0  0  0  0  0  0  0  0  0  0
  -17.4850    7.9300    1.0530 F   0  0  0  0  0  0  0  0  0  0  0  0
  -14.8640    3.4180    2.6310 N   0  0  0  0  0  0  0  0  0  0  0  0
  -13.9290    3.1760    1.6340 C   0  0  0  0  0  0  0  0  0  0  0  0
  -13.1350    2.2580    1.6130 O   0  0  0  0  0  0  0  0  0  0  0  0
   -8.8500    3.0440   -0.7030 C   0  0  0  0  0  0  0  0  0  0  0  0
   -9.2911   -4.2719   -0.4544 H   0  0  0  0  0  0  0  0  0  0  0  0
  -10.6810   -4.9564   -1.3635 H   0  0  0  0  0  0  0  0  0  0  0  0
   -9.1001   -5.8094   -1.3635 H   0  0  0  0  0  0  0  0  0  0  0  0
   -8.6873   -3.1057   -2.2665 H   0  0  0  0  0  0  0  0  0  0  0  0
   -8.4820   -4.6858   -3.1651 H   0  0  0  0  0  0  0  0  0  0  0  0
  -11.1412   -5.1249   -4.7802 H   0  0  0  0  0  0  0  0  0  0  0  0
  -10.9410   -5.6441   -3.0616 H   0  0  0  0  0  0  0  0  0  0  0  0
  -12.7944   -4.3496   -2.3379 H   0  0  0  0  0  0  0  0  0  0  0  0
  -12.8374   -3.4014   -3.8629 H   0  0  0  0  0  0  0  0  0  0  0  0
  -13.3412   -5.1256   -3.8629 H   0  0  0  0  0  0  0  0  0  0  0  0
  -12.0244   -2.5485   -3.3583 H   0  0  0  0  0  0  0  0  0  0  0  0
  -10.8383   -2.4721   -1.9349 H   0  0  0  0  0  0  0  0  0  0  0  0
   -9.3220   -1.1745   -3.5095 H   0  0  0  0  0  0  0  0  0  0  0  0
  -10.8115   -0.9464   -4.5254 H   0  0  0  0  0  0  0  0  0  0  0  0
  -11.5331   -0.1951   -1.9255 H   0  0  0  0  0  0  0  0  0  0  0  0
  -10.9392    4.6007    0.2217 H   0  0  0  0  0  0  0  0  0  0  0  0
  -14.2604    1.7300   -1.9988 H   0  0  0  0  0  0  0  0  0  0  0  0
  -13.9569    2.8881   -3.3380 H   0  0  0  0  0  0  0  0  0  0  0  0
  -13.1496    1.2834   -3.3380 H   0  0  0  0  0  0  0  0  0  0  0  0
  -13.7557    5.4115   -1.0992 H   0  0  0  0  0  0  0  0  0  0  0  0
  -16.9249    4.6041    4.0955 H   0  0  0  0  0  0  0  0  0  0  0  0
  -18.0680    6.6905    3.2736 H   0  0  0  0  0  0  0  0  0  0  0  0
  -15.5395    6.7478   -0.2571 H   0  0  0  0  0  0  0  0  0  0  0  0
  -14.9837    2.8274    3.4664 H   0  0  0  0  0  0  0  0  0  0  0  0
   -8.7649    3.0438    0.3937 H   0  0  0  0  0  0  0  0  0  0  0  0
   -8.3639    2.1445   -1.1087 H   0  0  0  0  0  0  0  0  0  0  0  0
   -8.3589    3.9408   -1.1087 H   0  0  0  0  0  0  0  0  0  0  0  0
  1  2  1  0
  2  3  1  0
  3  4  1  0
  4  5  1  0
  3  6  1  0
  6  7  1  0
  7  8  1  0
  8  9  1  0
  9 10  2  0
  9 11  1  0
 11 12  2  0
 12 13  1  0
 13 14  1  0
 14 15  2  0
 15 16  1  0
 14 17  1  0
 17 18  2  0
 18 19  1  0
 19 20  1  0
 20 21  2  0
 21 22  1  0
 22 23  2  0
 23 24  1  0
 23 25  1  0
 20 26  1  0
 26 27  1  0
 27 28  2  0
 12 29  1  0
 15 11  1  0
 27 18  1  0
 24 19  2  0
  1 30  1  0
  1 31  1  0
  1 32  1  0
  2 33  1  0
  2 34  1  0
  4 35  1  0
  4 36  1  0
  5 37  1  0
  5 38  1  0
  5 39  1  0
  6 40  1  0
  6 41  1  0
  7 42  1  0
  7 43  1  0
  8 44  1  0
 13 45  1  0
 16 46  1  0
 16 47  1  0
 16 48  1  0
 17 49  1  0
 21 50  1  0
 22 51  1  0
 24 52  1  0
 26 53  1  0
 29 54  1  0
 29 55  1  0
 29 56  1  0
M  END
