
     RDKit          3D

 76 79  0  0  0  0  0  0  0  0999 V2000
  -15.4700    0.6860    3.7920 C   0  0  0  0  0  0  0  0  0  0  0  0
  -16.4080   -0.4910    3.5160 C   0  0  0  0  0  0  0  0  0  0  0  0
  -17.8680   -0.1680    3.8210 C   0  0  0  0  0  0  0  0  0  0  0  0
  -15.9180   -1.7870    4.1460 C   0  0  0  0  0  0  0  0  0  0  0  0
  -16.2920   -2.3070    5.3910 C   0  0  0  0  0  0  0  0  0  0  0  0
  -15.6840   -3.5980    5.5080 C   0  0  0  0  0  0  0  0  0  0  0  0
  -14.9470   -3.8360    4.3550 C   0  0  0  0  0  0  0  0  0  0  0  0
  -15.0230   -2.6850    3.5780 N   0  0  0  0  0  0  0  0  0  0  0  0
  -14.2170   -2.4730    2.3770 C   0  0  0  0  0  0  0  0  0  0  0  0
  -14.9620   -2.8500    1.0970 C   0  0  0  0  0  0  0  0  0  0  0  0
  -14.0260   -3.2580   -0.0470 C   0  0  2  0  0  0  0  0  0  0  0  0
  -14.4660   -2.8860   -1.4740 C   0  0  0  0  0  0  0  0  0  0  0  0
  -15.9350   -3.1840   -1.8140 C   0  0  2  0  0  0  0  0  0  0  0  0
  -16.1240   -4.4580   -2.6430 C   0  0  0  0  0  0  0  0  0  0  0  0
  -16.4800   -5.6530   -1.8040 C   0  0  0  0  0  0  0  0  0  0  0  0
  -16.4850   -5.7110   -0.5850 O   0  0  0  0  0  0  0  0  0  0  0  0
  -16.7810   -6.7310   -2.5510 O   0  0  0  0  0  0  0  0  0  0  0  0
  -16.5530   -2.0750   -2.4550 O   0  0  0  0  0  0  0  0  0  0  0  0
  -13.7750   -4.6610    0.0250 O   0  0  0  0  0  0  0  0  0  0  0  0
  -14.1490   -5.0150    3.9990 C   0  0  0  0  0  0  0  0  0  0  0  0
  -12.8040   -5.1010    4.3860 C   0  0  0  0  0  0  0  0  0  0  0  0
  -12.0390   -6.2110    4.0270 C   0  0  0  0  0  0  0  0  0  0  0  0
  -12.6160   -7.2280    3.2740 C   0  0  0  0  0  0  0  0  0  0  0  0
  -13.9440   -7.1560    2.8750 C   0  0  0  0  0  0  0  0  0  0  0  0
  -14.7130   -6.0470    3.2360 C   0  0  0  0  0  0  0  0  0  0  0  0
  -11.8790   -8.2930    2.9330 F   0  0  0  0  0  0  0  0  0  0  0  0
  -15.7500   -4.5380    6.6210 C   0  0  0  0  0  0  0  0  0  0  0  0
  -16.8520   -5.3900    6.7500 C   0  0  0  0  0  0  0  0  0  0  0  0
  -16.9030   -6.3210    7.7890 C   0  0  0  0  0  0  0  0  0  0  0  0
  -15.8550   -6.4040    8.7040 C   0  0  0  0  0  0  0  0  0  0  0  0
  -14.7530   -5.5580    8.5820 C   0  0  0  0  0  0  0  0  0  0  0  0
  -14.6990   -4.6290    7.5420 C   0  0  0  0  0  0  0  0  0  0  0  0
  -17.1590   -1.6240    6.3700 C   0  0  0  0  0  0  0  0  0  0  0  0
  -16.7260   -0.7180    7.0720 O   0  0  0  0  0  0  0  0  0  0  0  0
  -18.4540   -2.1060    6.3790 N   0  0  0  0  0  0  0  0  0  0  0  0
  -19.5240   -1.7120    7.2050 C   0  0  0  0  0  0  0  0  0  0  0  0
  -19.6230   -2.3360    8.4550 C   0  0  0  0  0  0  0  0  0  0  0  0
  -20.6540   -2.0030    9.3390 C   0  0  0  0  0  0  0  0  0  0  0  0
  -21.5940   -1.0430    8.9800 C   0  0  0  0  0  0  0  0  0  0  0  0
  -21.5030   -0.4160    7.7390 C   0  0  0  0  0  0  0  0  0  0  0  0
  -20.4710   -0.7480    6.8550 C   0  0  0  0  0  0  0  0  0  0  0  0
  -15.3618    0.8217    4.8782 H   0  0  0  0  0  0  0  0  0  0  0  0
  -14.4846    0.4814    3.3481 H   0  0  0  0  0  0  0  0  0  0  0  0
  -15.8893    1.6009    3.3481 H   0  0  0  0  0  0  0  0  0  0  0  0
  -16.3783   -0.6678    2.4307 H   0  0  0  0  0  0  0  0  0  0  0  0
  -18.0164   -0.1352    4.9104 H   0  0  0  0  0  0  0  0  0  0  0  0
  -18.1260    0.8089    3.3862 H   0  0  0  0  0  0  0  0  0  0  0  0
  -18.5140   -0.9449    3.3862 H   0  0  0  0  0  0  0  0  0  0  0  0
  -13.9380   -1.4103    2.3226 H   0  0  0  0  0  0  0  0  0  0  0  0
  -13.3311   -3.1209    2.4508 H   0  0  0  0  0  0  0  0  0  0  0  0
  -15.6327   -3.6934    1.3180 H   0  0  0  0  0  0  0  0  0  0  0  0
  -15.5153   -1.9590    0.7655 H   0  0  0  0  0  0  0  0  0  0  0  0
  -13.1182   -2.6591    0.1178 H   0  0  0  0  0  0  0  0  0  0  0  0
  -14.2993   -1.8072   -1.6093 H   0  0  0  0  0  0  0  0  0  0  0  0
  -13.8670   -3.5161   -2.1479 H   0  0  0  0  0  0  0  0  0  0  0  0
  -16.4329   -3.3616   -0.8494 H   0  0  0  0  0  0  0  0  0  0  0  0
  -16.9309   -4.2869   -3.3708 H   0  0  0  0  0  0  0  0  0  0  0  0
  -15.1661   -4.6753   -3.1382 H   0  0  0  0  0  0  0  0  0  0  0  0
  -17.0325   -7.5823   -2.1128 H   0  0  0  0  0  0  0  0  0  0  0  0
  -16.9012   -1.4502   -1.7705 H   0  0  0  0  0  0  0  0  0  0  0  0
  -13.7253   -4.9391    0.9738 H   0  0  0  0  0  0  0  0  0  0  0  0
  -12.3504   -4.2902    4.9749 H   0  0  0  0  0  0  0  0  0  0  0  0
  -10.9861   -6.2814    4.3375 H   0  0  0  0  0  0  0  0  0  0  0  0
  -14.3876   -7.9669    2.2786 H   0  0  0  0  0  0  0  0  0  0  0  0
  -15.7648   -5.9833    2.9204 H   0  0  0  0  0  0  0  0  0  0  0  0
  -17.6813   -5.3261    6.0302 H   0  0  0  0  0  0  0  0  0  0  0  0
  -17.7711   -6.9897    7.8856 H   0  0  0  0  0  0  0  0  0  0  0  0
  -15.8971   -7.1372    9.5229 H   0  0  0  0  0  0  0  0  0  0  0  0
  -13.9267   -5.6230    9.3052 H   0  0  0  0  0  0  0  0  0  0  0  0
  -13.8271   -3.9653    7.4453 H   0  0  0  0  0  0  0  0  0  0  0  0
  -18.6629   -2.8472    5.6950 H   0  0  0  0  0  0  0  0  0  0  0  0
  -18.8821   -3.0958    8.7443 H   0  0  0  0  0  0  0  0  0  0  0  0
  -20.7215   -2.5001   10.3179 H   0  0  0  0  0  0  0  0  0  0  0  0
  -22.4064   -0.7796    9.6733 H   0  0  0  0  0  0  0  0  0  0  0  0
  -22.2459    0.3433    7.4532 H   0  0  0  0  0  0  0  0  0  0  0  0
  -20.4053   -0.2464    5.8782 H   0  0  0  0  0  0  0  0  0  0  0  0
  1  2  1  0
  2  3  1  0
  2  4  1  0
  4  5  2  0
  5  6  1  0
  6  7  2  0
  7  8  1  0
  8  9  1  0
  9 10  1  0
 10 11  1  0
 11 12  1  0
 12 13  1  0
 13 14  1  0
 14 15  1  0
 15 16  2  0
 15 17  1  0
 13 18  1  0
 11 19  1  0
  7 20  1  0
 20 21  2  0
 21 22  1  0
 22 23  2  0
 23 24  1  0
 24 25  2  0
 23 26  1  0
  6 27  1  0
 27 28  2  0
 28 29  1  0
 29 30  2  0
 30 31  1  0
 31 32  2  0
  5 33  1  0
 33 34  2  0
 33 35  1  0
 35 36  1  0
 36 37  2  0
 37 38  1  0
 38 39  2  0
 39 40  1  0
 40 41  2  0
  8  4  1  0
 25 20  1  0
 32 27  1  0
 41 36  1  0
  1 42  1  0
  1 43  1  0
  1 44  1  0
  2 45  1  0
  3 46  1  0
  3 47  1  0
  3 48  1  0
  9 49  1  0
  9 50  1  0
 10 51  1  0
 10 52  1  0
 11 53  1  1
 12 54  1  0
 12 55  1  0
 13 56  1  1
 14 57  1  0
 14 58  1  0
 17 59  1  0
 18 60  1  0
 19 61  1  0
 21 62  1  0
 22 63  1  0
 24 64  1  0
 25 65  1  0
 28 66  1  0
 29 67  1  0
 30 68  1  0
 31 69  1  0
 32 70  1  0
 35 71  1  0
 37 72  1  0
 38 73  1  0
 39 74  1  0
 40 75  1  0
 41 76  1  0
M  END
