
     RDKit          3D

 47 50  0  0  0  0  0  0  0  0999 V2000
  -10.2320    1.7530   -5.0180 C   0  0  0  0  0  0  0  0  0  0  0  0
  -11.5420    1.2090   -4.4490 C   0  0  0  0  0  0  0  0  0  0  0  0
  -12.2740    2.2470   -3.6060 C   0  0  0  0  0  0  0  0  0  0  0  0
  -11.4320    2.7500   -2.4140 C   0  0  0  0  0  0  0  0  0  0  0  0
   -9.9220    2.5170   -2.6310 C   0  0  0  0  0  0  0  0  0  0  0  0
   -9.5310    2.7410   -4.0860 C   0  0  0  0  0  0  0  0  0  0  0  0
  -11.9090    2.1220   -1.0970 C   0  0  0  0  0  0  0  0  0  0  0  0
  -11.5890    0.9710   -0.7920 O   0  0  0  0  0  0  0  0  0  0  0  0
  -12.7390    2.8720   -0.2710 N   0  0  0  0  0  0  0  0  0  0  0  0
  -12.9160    4.3220   -0.3420 C   0  0  0  0  0  0  0  0  0  0  0  0
  -14.3420    4.7300    0.0820 C   0  0  0  0  0  0  0  0  0  0  0  0
  -14.6370    6.2280   -0.0260 C   0  0  0  0  0  0  0  0  0  0  0  0
  -13.8840    7.1170   -0.8100 C   0  0  0  0  0  0  0  0  0  0  0  0
  -14.2480    8.4620   -0.9220 C   0  0  0  0  0  0  0  0  0  0  0  0
  -15.3800    8.9400   -0.2670 C   0  0  0  0  0  0  0  0  0  0  0  0
  -16.1470    8.0770    0.5090 C   0  0  0  0  0  0  0  0  0  0  0  0
  -15.7760    6.7330    0.6370 C   0  0  0  0  0  0  0  0  0  0  0  0
  -16.5920    5.7870    1.4750 C   0  0  0  0  0  0  0  0  0  0  0  0
  -15.6540    4.8700    2.2540 C   0  0  0  0  0  0  0  0  0  0  0  0
  -14.6750    4.1810    1.4130 N   0  0  0  0  0  0  0  0  0  0  0  0
  -14.1610    2.9730    1.8670 C   0  0  0  0  0  0  0  0  0  0  0  0
  -14.4980    2.4850    2.9480 O   0  0  0  0  0  0  0  0  0  0  0  0
  -13.1090    2.2620    1.0030 C   0  0  0  0  0  0  0  0  0  0  0  0
   -9.5540    0.9069   -5.2033 H   0  0  0  0  0  0  0  0  0  0  0  0
  -10.4794    2.2966   -5.9418 H   0  0  0  0  0  0  0  0  0  0  0  0
  -12.1925    0.9060   -5.2827 H   0  0  0  0  0  0  0  0  0  0  0  0
  -11.3012    0.3537   -3.8006 H   0  0  0  0  0  0  0  0  0  0  0  0
  -12.5256    3.1056   -4.2459 H   0  0  0  0  0  0  0  0  0  0  0  0
  -13.1745    1.7662   -3.1963 H   0  0  0  0  0  0  0  0  0  0  0  0
  -11.5821    3.8376   -2.3466 H   0  0  0  0  0  0  0  0  0  0  0  0
   -9.3568    3.2155   -1.9965 H   0  0  0  0  0  0  0  0  0  0  0  0
   -9.6898    1.4751   -2.3655 H   0  0  0  0  0  0  0  0  0  0  0  0
   -9.8099    3.7646   -4.3766 H   0  0  0  0  0  0  0  0  0  0  0  0
   -8.4456    2.5874   -4.1771 H   0  0  0  0  0  0  0  0  0  0  0  0
  -12.1900    4.8056    0.3281 H   0  0  0  0  0  0  0  0  0  0  0  0
  -12.7561    4.6425   -1.3821 H   0  0  0  0  0  0  0  0  0  0  0  0
  -15.0163    4.2735   -0.6575 H   0  0  0  0  0  0  0  0  0  0  0  0
  -12.9950    6.7497   -1.3436 H   0  0  0  0  0  0  0  0  0  0  0  0
  -13.6376    9.1457   -1.5302 H   0  0  0  0  0  0  0  0  0  0  0  0
  -15.6671    9.9975   -0.3629 H   0  0  0  0  0  0  0  0  0  0  0  0
  -17.0453    8.4507    1.0222 H   0  0  0  0  0  0  0  0  0  0  0  0
  -17.2133    6.3609    2.1783 H   0  0  0  0  0  0  0  0  0  0  0  0
  -17.2422    5.1839    0.8243 H   0  0  0  0  0  0  0  0  0  0  0  0
  -15.1110    5.4760    2.9942 H   0  0  0  0  0  0  0  0  0  0  0  0
  -16.2776    4.0949    2.7235 H   0  0  0  0  0  0  0  0  0  0  0  0
  -12.1920    2.1816    1.6052 H   0  0  0  0  0  0  0  0  0  0  0  0
  -13.5831    1.3097    0.7230 H   0  0  0  0  0  0  0  0  0  0  0  0
  1  2  1  0
  2  3  1  0
  3  4  1  0
  4  5  1  0
  5  6  1  0
  4  7  1  0
  7  8  2  0
  7  9  1  0
  9 10  1  0
 10 11  1  0
 11 12  1  0
 12 13  2  0
 13 14  1  0
 14 15  2  0
 15 16  1  0
 16 17  2  0
 17 18  1  0
 18 19  1  0
 19 20  1  0
 20 21  1  0
 21 22  2  0
 21 23  1  0
  6  1  1  0
 23  9  1  0
 20 11  1  0
 17 12  1  0
  1 24  1  0
  1 25  1  0
  2 26  1  0
  2 27  1  0
  3 28  1  0
  3 29  1  0
  4 30  1  0
  5 31  1  0
  5 32  1  0
  6 33  1  0
  6 34  1  0
 10 35  1  0
 10 36  1  0
 11 37  1  0
 13 38  1  0
 14 39  1  0
 15 40  1  0
 16 41  1  0
 18 42  1  0
 18 43  1  0
 19 44  1  0
 19 45  1  0
 23 46  1  0
 23 47  1  0
M  END
