
     RDKit          3D

 60 63  0  0  0  0  0  0  0  0999 V2000
  -11.6440   -5.7500   -4.4010 C   0  0  0  0  0  0  0  0  0  0  0  0
  -11.9330   -6.1210   -3.0020 N   0  0  0  0  0  0  0  0  0  0  0  0
  -11.5800   -7.5460   -2.8500 C   0  0  0  0  0  0  0  0  0  0  0  0
  -11.1790   -5.2690   -2.0290 C   0  0  2  0  0  0  0  0  0  0  0  0
  -11.9110   -5.1430   -0.6660 C   0  0  1  0  0  0  0  0  0  0  0  0
  -11.0190   -4.4790    0.4070 C   0  0  0  0  0  0  0  0  0  0  0  0
  -11.7160   -4.3720    1.7730 C   0  0  2  0  0  0  0  0  0  0  0  0
  -11.4930   -5.6120    2.6460 C   0  0  0  0  0  0  0  0  0  0  0  0
  -12.1100   -5.4420    4.0210 C   0  0  0  0  0  0  0  0  0  0  0  0
  -11.5860   -6.0930    5.1600 C   0  0  0  0  0  0  0  0  0  0  0  0
  -12.1750   -5.8350    6.4120 C   0  0  0  0  0  0  0  0  0  0  0  0
  -13.2780   -4.9970    6.5520 C   0  0  0  0  0  0  0  0  0  0  0  0
  -13.8260   -4.4000    5.4280 C   0  0  0  0  0  0  0  0  0  0  0  0
  -13.2550   -4.6120    4.1650 C   0  0  0  0  0  0  0  0  0  0  0  0
  -13.8870   -3.9800    2.9750 C   0  0  0  0  0  0  0  0  0  0  0  0
  -13.1900   -4.1250    1.6670 C   0  0  0  0  0  0  0  0  0  0  0  0
  -13.8840   -4.0860    0.5110 C   0  0  0  0  0  0  0  0  0  0  0  0
  -15.2520   -3.8450    0.4810 O   0  0  0  0  0  0  0  0  0  0  0  0
  -13.2480   -4.3870   -0.8470 C   0  0  1  0  0  0  0  0  0  0  0  0
  -13.0670   -3.0540   -1.6310 C   0  0  0  0  0  0  0  0  0  0  0  0
  -11.8040   -2.8360   -2.4090 C   0  0  0  0  0  0  0  0  0  0  0  0
  -10.9430   -3.8650   -2.5750 C   0  0  0  0  0  0  0  0  0  0  0  0
   -9.7200   -3.7460   -3.2310 O   0  0  0  0  0  0  0  0  0  0  0  0
  -11.4560   -1.5090   -3.0060 C   0  0  0  0  0  0  0  0  0  0  0  0
  -10.7640   -1.4160   -4.0180 O   0  0  0  0  0  0  0  0  0  0  0  0
  -11.9270   -0.4000   -2.3860 N   0  0  0  0  0  0  0  0  0  0  0  0
  -13.9260   -2.1660   -1.6480 O   0  0  0  0  0  0  0  0  0  0  0  0
  -14.1490   -5.2430   -1.5610 O   0  0  0  0  0  0  0  0  0  0  0  0
  -14.9570   -3.3800    3.0670 O   0  0  0  0  0  0  0  0  0  0  0  0
  -14.9270   -3.6150    5.6410 O   0  0  0  0  0  0  0  0  0  0  0  0
  -10.5120   -6.9880    5.1640 N   0  0  0  0  0  0  0  0  0  0  0  0
   -9.3530   -6.6760    5.9890 C   0  0  0  0  0  0  0  0  0  0  0  0
  -10.8960   -8.3940    5.0680 C   0  0  0  0  0  0  0  0  0  0  0  0
  -10.9681   -4.8823   -4.4181 H   0  0  0  0  0  0  0  0  0  0  0  0
  -11.1657   -6.5975   -4.9138 H   0  0  0  0  0  0  0  0  0  0  0  0
  -12.5828   -5.4937   -4.9138 H   0  0  0  0  0  0  0  0  0  0  0  0
  -11.5180   -7.7963   -1.7807 H   0  0  0  0  0  0  0  0  0  0  0  0
  -12.3513   -8.1678   -3.3280 H   0  0  0  0  0  0  0  0  0  0  0  0
  -10.6077   -7.7359   -3.3280 H   0  0  0  0  0  0  0  0  0  0  0  0
  -10.2155   -5.7773   -1.8764 H   0  0  0  0  0  0  0  0  0  0  0  0
  -12.1341   -6.1567   -0.3019 H   0  0  0  0  0  0  0  0  0  0  0  0
  -10.1042   -5.0784    0.5245 H   0  0  0  0  0  0  0  0  0  0  0  0
  -10.7944   -3.4572    0.0671 H   0  0  0  0  0  0  0  0  0  0  0  0
  -11.2454   -3.4994    2.2496 H   0  0  0  0  0  0  0  0  0  0  0  0
  -11.9510   -6.4827    2.1539 H   0  0  0  0  0  0  0  0  0  0  0  0
  -10.4096   -5.7569    2.7694 H   0  0  0  0  0  0  0  0  0  0  0  0
  -11.7504   -6.3106    7.3084 H   0  0  0  0  0  0  0  0  0  0  0  0
  -13.7106   -4.8105    7.5460 H   0  0  0  0  0  0  0  0  0  0  0  0
  -11.7103    0.5330   -2.7647 H   0  0  0  0  0  0  0  0  0  0  0  0
  -12.5017   -0.4900   -1.5360 H   0  0  0  0  0  0  0  0  0  0  0  0
  -13.7678   -1.3340   -2.1607 H   0  0  0  0  0  0  0  0  0  0  0  0
  -14.6935   -5.7603   -0.9161 H   0  0  0  0  0  0  0  0  0  0  0  0
  -15.3628   -2.9657    2.2646 H   0  0  0  0  0  0  0  0  0  0  0  0
  -15.3656   -3.1602    4.8788 H   0  0  0  0  0  0  0  0  0  0  0  0
   -9.6285   -6.7502    7.0514 H   0  0  0  0  0  0  0  0  0  0  0  0
   -8.5441   -7.3884    5.7694 H   0  0  0  0  0  0  0  0  0  0  0  0
   -9.0111   -5.6538    5.7694 H   0  0  0  0  0  0  0  0  0  0  0  0
  -11.0104   -8.8127    6.0788 H   0  0  0  0  0  0  0  0  0  0  0  0
  -11.8498   -8.4774    4.5265 H   0  0  0  0  0  0  0  0  0  0  0  0
  -10.1170   -8.9507    4.5265 H   0  0  0  0  0  0  0  0  0  0  0  0
  1  2  1  0
  2  3  1  0
  2  4  1  0
  4  5  1  0
  5  6  1  0
  6  7  1  0
  7  8  1  0
  8  9  1  0
  9 10  2  0
 10 11  1  0
 11 12  2  0
 12 13  1  0
 13 14  2  0
 14 15  1  0
 15 16  2  0
 16 17  1  0
 17 18  2  0
 17 19  1  0
 19 20  1  0
 20 21  2  0
 21 22  1  0
 22 23  2  0
 21 24  1  0
 24 25  2  0
 24 26  1  0
 20 27  1  0
 19 28  1  1
 15 29  1  0
 13 30  1  0
 10 31  1  0
 31 32  1  0
 31 33  1  0
 22  4  1  0
 19  5  1  0
 16  7  1  0
 14  9  1  0
  1 34  1  0
  1 35  1  0
  1 36  1  0
  3 37  1  0
  3 38  1  0
  3 39  1  0
  4 40  1  6
  5 41  1  6
  6 42  1  0
  6 43  1  0
  7 44  1  1
  8 45  1  0
  8 46  1  0
 11 47  1  0
 12 48  1  0
 26 49  1  0
 26 50  1  0
 27 51  1  0
 28 52  1  0
 29 53  1  0
 30 54  1  0
 32 55  1  0
 32 56  1  0
 32 57  1  0
 33 58  1  0
 33 59  1  0
 33 60  1  0
M  END
