
     RDKit          3D

 85 88  0  0  0  0  0  0  0  0999 V2000
   -9.9330    3.9920    1.7530 C   0  0  0  0  0  0  0  0  0  0  0  0
  -10.4930    3.3960    0.4920 C   0  0  0  0  0  0  0  0  0  0  0  0
  -11.8130    2.8980    0.4360 C   0  0  0  0  0  0  0  0  0  0  0  0
  -12.3020    2.2600   -0.7140 C   0  0  0  0  0  0  0  0  0  0  0  0
  -11.4980    2.1480   -1.8450 C   0  0  0  0  0  0  0  0  0  0  0  0
  -10.2130    2.6820   -1.8280 C   0  0  0  0  0  0  0  0  0  0  0  0
   -9.7230    3.3040   -0.6780 C   0  0  0  0  0  0  0  0  0  0  0  0
   -8.4560    3.8080   -0.7790 O   0  0  0  0  0  0  0  0  0  0  0  0
  -12.7630    3.0200    1.5690 C   0  0  0  0  0  0  0  0  0  0  0  0
  -12.7490    4.0090    2.2920 O   0  0  0  0  0  0  0  0  0  0  0  0
  -13.5800    1.9290    1.7640 N   0  0  0  0  0  0  0  0  0  0  0  0
  -14.4570    1.8270    2.9450 C   0  0  1  0  0  0  0  0  0  0  0  0
  -15.8300    2.4610    2.6370 C   0  0  0  0  0  0  0  0  0  0  0  0
  -16.1490    4.0180    3.5670 S   0  0  0  0  0  0  0  0  0  0  0  0
  -16.2370    5.1660    2.2100 C   0  0  0  0  0  0  0  0  0  0  0  0
  -17.0580    6.2940    2.2970 C   0  0  0  0  0  0  0  0  0  0  0  0
  -17.1370    7.1910    1.2300 C   0  0  0  0  0  0  0  0  0  0  0  0
  -16.3990    6.9610    0.0700 C   0  0  0  0  0  0  0  0  0  0  0  0
  -15.5850    5.8330   -0.0260 C   0  0  0  0  0  0  0  0  0  0  0  0
  -15.5110    4.9330    1.0390 C   0  0  0  0  0  0  0  0  0  0  0  0
  -14.5500    0.3380    3.3820 C   0  0  1  0  0  0  0  0  0  0  0  0
  -15.6180   -0.5110    2.6470 C   0  0  0  0  0  0  0  0  0  0  0  0
  -16.2830   -1.5180    3.4910 N   0  0  0  0  0  0  0  0  0  0  0  0
  -17.4780   -1.0040    4.1750 C   0  0  0  0  0  0  0  0  0  0  0  0
  -17.2130   -0.5400    5.6150 C   0  0  1  0  0  0  0  0  0  0  0  0
  -18.4840    0.0780    6.2230 C   0  0  0  0  0  0  0  0  0  0  0  0
  -18.3590    0.2120    7.7350 C   0  0  0  0  0  0  0  0  0  0  0  0
  -18.1840   -1.1440    8.4170 C   0  0  0  0  0  0  0  0  0  0  0  0
  -17.6450   -2.2330    7.4900 C   0  0  0  0  0  0  0  0  0  0  0  0
  -16.6300   -1.6820    6.4830 C   0  0  1  0  0  0  0  0  0  0  0  0
  -16.0490   -2.8130    5.6210 C   0  0  0  0  0  0  0  0  0  0  0  0
  -15.3440   -2.2400    4.3840 C   0  0  1  0  0  0  0  0  0  0  0  0
  -14.6570   -3.3870    3.6010 C   0  0  0  0  0  0  0  0  0  0  0  0
  -15.2820   -4.3170    3.0920 O   0  0  0  0  0  0  0  0  0  0  0  0
  -13.2830   -3.2560    3.5120 N   0  0  0  0  0  0  0  0  0  0  0  0
  -12.4000   -4.1680    2.7680 C   0  0  0  0  0  0  0  0  0  0  0  0
  -10.9550   -3.6560    2.9170 C   0  0  0  0  0  0  0  0  0  0  0  0
  -12.4640   -5.5930    3.3400 C   0  0  0  0  0  0  0  0  0  0  0  0
  -12.7620   -4.1790    1.2740 C   0  0  0  0  0  0  0  0  0  0  0  0
  -13.2650   -0.2950    3.3360 O   0  0  0  0  0  0  0  0  0  0  0  0
  -10.3922    3.5033    2.6249 H   0  0  0  0  0  0  0  0  0  0  0  0
   -8.8439    3.8395    1.7785 H   0  0  0  0  0  0  0  0  0  0  0  0
  -10.1530    5.0695    1.7785 H   0  0  0  0  0  0  0  0  0  0  0  0
  -13.3218    1.8478   -0.7219 H   0  0  0  0  0  0  0  0  0  0  0  0
  -11.8756    1.6412   -2.7453 H   0  0  0  0  0  0  0  0  0  0  0  0
   -9.5801    2.6137   -2.7251 H   0  0  0  0  0  0  0  0  0  0  0  0
   -8.0411    4.2633   -0.0039 H   0  0  0  0  0  0  0  0  0  0  0  0
  -13.5785    1.1678    1.0701 H   0  0  0  0  0  0  0  0  0  0  0  0
  -14.0391    2.3900    3.7926 H   0  0  0  0  0  0  0  0  0  0  0  0
  -15.8768    2.6831    1.5607 H   0  0  0  0  0  0  0  0  0  0  0  0
  -16.5968    1.7365    2.9486 H   0  0  0  0  0  0  0  0  0  0  0  0
  -17.6442    6.4757    3.2099 H   0  0  0  0  0  0  0  0  0  0  0  0
  -17.7816    8.0792    1.3047 H   0  0  0  0  0  0  0  0  0  0  0  0
  -16.4588    7.6693   -0.7695 H   0  0  0  0  0  0  0  0  0  0  0  0
  -15.0012    5.6522   -0.9406 H   0  0  0  0  0  0  0  0  0  0  0  0
  -14.8786    4.0368    0.9558 H   0  0  0  0  0  0  0  0  0  0  0  0
  -14.9033    0.3799    4.4229 H   0  0  0  0  0  0  0  0  0  0  0  0
  -16.3872    0.1698    2.2534 H   0  0  0  0  0  0  0  0  0  0  0  0
  -15.0891   -1.0643    1.8570 H   0  0  0  0  0  0  0  0  0  0  0  0
  -17.8665   -0.1500    3.6008 H   0  0  0  0  0  0  0  0  0  0  0  0
  -18.1980   -1.8337    4.2318 H   0  0  0  0  0  0  0  0  0  0  0  0
  -16.4452    0.2474    5.5925 H   0  0  0  0  0  0  0  0  0  0  0  0
  -18.6434    1.0748    5.7859 H   0  0  0  0  0  0  0  0  0  0  0  0
  -19.3349   -0.5824    5.9998 H   0  0  0  0  0  0  0  0  0  0  0  0
  -17.4860    0.8405    7.9649 H   0  0  0  0  0  0  0  0  0  0  0  0
  -19.2867    0.6658    8.1138 H   0  0  0  0  0  0  0  0  0  0  0  0
  -17.4823   -1.0230    9.2554 H   0  0  0  0  0  0  0  0  0  0  0  0
  -19.1816   -1.4684    8.7480 H   0  0  0  0  0  0  0  0  0  0  0  0
  -17.1558   -3.0073    8.0992 H   0  0  0  0  0  0  0  0  0  0  0  0
  -18.4929   -2.6468    6.9245 H   0  0  0  0  0  0  0  0  0  0  0  0
  -15.8075   -1.2359    7.0613 H   0  0  0  0  0  0  0  0  0  0  0  0
  -15.3241   -3.3864    6.2174 H   0  0  0  0  0  0  0  0  0  0  0  0
  -16.8705   -3.4659    5.2910 H   0  0  0  0  0  0  0  0  0  0  0  0
  -14.5936   -1.5151    4.7325 H   0  0  0  0  0  0  0  0  0  0  0  0
  -12.8462   -2.4624    4.0021 H   0  0  0  0  0  0  0  0  0  0  0  0
  -10.7056   -3.5676    3.9847 H   0  0  0  0  0  0  0  0  0  0  0  0
  -10.2638   -4.3639    2.4364 H   0  0  0  0  0  0  0  0  0  0  0  0
  -10.8637   -2.6708    2.4364 H   0  0  0  0  0  0  0  0  0  0  0  0
  -12.4620   -5.5474    4.4391 H   0  0  0  0  0  0  0  0  0  0  0  0
  -13.3852   -6.0855    2.9952 H   0  0  0  0  0  0  0  0  0  0  0  0
  -11.5907   -6.1661    2.9952 H   0  0  0  0  0  0  0  0  0  0  0  0
  -13.8558   -4.2122    1.1620 H   0  0  0  0  0  0  0  0  0  0  0  0
  -12.3719   -3.2686    0.7955 H   0  0  0  0  0  0  0  0  0  0  0  0
  -12.3173   -5.0640    0.7955 H   0  0  0  0  0  0  0  0  0  0  0  0
  -12.9423   -0.4540    4.2583 H   0  0  0  0  0  0  0  0  0  0  0  0
  1  2  1  0
  2  3  2  0
  3  4  1  0
  4  5  2  0
  5  6  1  0
  6  7  2  0
  7  8  1  0
  3  9  1  0
  9 10  2  0
  9 11  1  0
 11 12  1  0
 12 13  1  0
 13 14  1  0
 14 15  1  0
 15 16  2  0
 16 17  1  0
 17 18  2  0
 18 19  1  0
 19 20  2  0
 12 21  1  0
 21 22  1  0
 22 23  1  0
 23 24  1  0
 24 25  1  0
 25 26  1  0
 26 27  1  0
 27 28  1  0
 28 29  1  0
 29 30  1  0
 30 31  1  0
 31 32  1  0
 32 33  1  0
 33 34  2  0
 33 35  1  0
 35 36  1  0
 36 37  1  0
 36 38  1  0
 36 39  1  0
 21 40  1  0
  7  2  1  0
 20 15  1  0
 32 23  1  0
 30 25  1  0
  1 41  1  0
  1 42  1  0
  1 43  1  0
  4 44  1  0
  5 45  1  0
  6 46  1  0
  8 47  1  0
 11 48  1  0
 12 49  1  1
 13 50  1  0
 13 51  1  0
 16 52  1  0
 17 53  1  0
 18 54  1  0
 19 55  1  0
 20 56  1  0
 21 57  1  1
 22 58  1  0
 22 59  1  0
 24 60  1  0
 24 61  1  0
 25 62  1  6
 26 63  1  0
 26 64  1  0
 27 65  1  0
 27 66  1  0
 28 67  1  0
 28 68  1  0
 29 69  1  0
 29 70  1  0
 30 71  1  1
 31 72  1  0
 31 73  1  0
 32 74  1  1
 35 75  1  0
 37 76  1  0
 37 77  1  0
 37 78  1  0
 38 79  1  0
 38 80  1  0
 38 81  1  0
 39 82  1  0
 39 83  1  0
 39 84  1  0
 40 85  1  0
M  END
