
     RDKit          3D

 49 50  0  0  0  0  0  0  0  0999 V2000
  -13.0790    2.2270   -2.7930 C   0  0  0  0  0  0  0  0  0  0  0  0
  -11.7400    1.4970   -2.8690 C   0  0  0  0  0  0  0  0  0  0  0  0
  -10.7500    2.2450   -3.6720 N   0  0  0  0  0  0  0  0  0  0  0  0
   -9.6540    2.7390   -2.8120 C   0  0  0  0  0  0  0  0  0  0  0  0
   -9.8420    2.3080   -1.3500 C   0  0  0  0  0  0  0  0  0  0  0  0
   -9.3300    3.3890   -0.3870 C   0  0  0  0  0  0  0  0  0  0  0  0
  -10.3930    3.8170    0.6360 C   0  0  0  0  0  0  0  0  0  0  0  0
   -9.8810    3.8320    2.0740 C   0  0  0  0  0  0  0  0  0  0  0  0
  -11.6590    3.0900    0.5040 N   0  0  0  0  0  0  0  0  0  0  0  0
  -12.8650    3.2850    1.1810 C   0  0  0  0  0  0  0  0  0  0  0  0
  -13.6260    4.4690    0.9350 C   0  0  0  0  0  0  0  0  0  0  0  0
  -13.2340    5.4840    0.0270 C   0  0  0  0  0  0  0  0  0  0  0  0
  -14.0070    6.6290   -0.1670 C   0  0  0  0  0  0  0  0  0  0  0  0
  -15.1910    6.7740    0.5400 C   0  0  0  0  0  0  0  0  0  0  0  0
  -15.6060    5.7820    1.4240 C   0  0  0  0  0  0  0  0  0  0  0  0
  -14.8520    4.6350    1.6260 C   0  0  0  0  0  0  0  0  0  0  0  0
  -15.3410    3.7220    2.4730 N   0  0  0  0  0  0  0  0  0  0  0  0
  -14.6320    2.5940    2.6480 C   0  0  0  0  0  0  0  0  0  0  0  0
  -13.4240    2.3320    2.0290 C   0  0  0  0  0  0  0  0  0  0  0  0
  -16.1560    8.1800    0.3140 Cl  0  0  0  0  0  0  0  0  0  0  0  0
  -10.2090    1.3830   -4.7570 C   0  0  0  0  0  0  0  0  0  0  0  0
   -9.7830    2.2210   -5.9740 C   0  0  0  0  0  0  0  0  0  0  0  0
  -10.9410    2.7140   -6.6450 O   0  0  0  0  0  0  0  0  0  0  0  0
  -13.3552    2.3776   -1.7389 H   0  0  0  0  0  0  0  0  0  0  0  0
  -12.9933    3.2032   -3.2927 H   0  0  0  0  0  0  0  0  0  0  0  0
  -13.8531    1.6261   -3.2927 H   0  0  0  0  0  0  0  0  0  0  0  0
  -11.3469    1.3679   -1.8498 H   0  0  0  0  0  0  0  0  0  0  0  0
  -11.9086    0.5246   -3.3548 H   0  0  0  0  0  0  0  0  0  0  0  0
   -8.7002    2.3356   -3.1829 H   0  0  0  0  0  0  0  0  0  0  0  0
   -9.6576    3.8384   -2.8489 H   0  0  0  0  0  0  0  0  0  0  0  0
  -10.9117    2.1351   -1.1607 H   0  0  0  0  0  0  0  0  0  0  0  0
   -9.2664    1.3862   -1.1798 H   0  0  0  0  0  0  0  0  0  0  0  0
   -8.4578    2.9943    0.1548 H   0  0  0  0  0  0  0  0  0  0  0  0
   -9.0678    4.2734   -0.9863 H   0  0  0  0  0  0  0  0  0  0  0  0
  -10.6171    4.8634    0.3815 H   0  0  0  0  0  0  0  0  0  0  0  0
  -10.7346    3.8070    2.7674 H   0  0  0  0  0  0  0  0  0  0  0  0
   -9.2434    2.9521    2.2454 H   0  0  0  0  0  0  0  0  0  0  0  0
   -9.2960    4.7477    2.2454 H   0  0  0  0  0  0  0  0  0  0  0  0
  -11.6592    2.3261   -0.1869 H   0  0  0  0  0  0  0  0  0  0  0  0
  -12.2978    5.3662   -0.5384 H   0  0  0  0  0  0  0  0  0  0  0  0
  -13.6811    7.4076   -0.8724 H   0  0  0  0  0  0  0  0  0  0  0  0
  -16.5504    5.9100    1.9733 H   0  0  0  0  0  0  0  0  0  0  0  0
  -15.0388    1.8303    3.3272 H   0  0  0  0  0  0  0  0  0  0  0  0
  -12.9075    1.3769    2.2051 H   0  0  0  0  0  0  0  0  0  0  0  0
   -9.3354    0.8334   -4.3765 H   0  0  0  0  0  0  0  0  0  0  0  0
  -10.9986    0.6858   -5.0738 H   0  0  0  0  0  0  0  0  0  0  0  0
   -9.1666    3.0677   -5.6377 H   0  0  0  0  0  0  0  0  0  0  0  0
   -9.2009    1.5927   -6.6642 H   0  0  0  0  0  0  0  0  0  0  0  0
  -11.6130    3.0001   -5.9766 H   0  0  0  0  0  0  0  0  0  0  0  0
  1  2  1  0
  2  3  1  0
  3  4  1  0
  4  5  1  0
  5  6  1  0
  6  7  1  0
  7  8  1  0
  7  9  1  0
  9 10  1  0
 10 11  2  0
 11 12  1  0
 12 13  2  0
 13 14  1  0
 14 15  2  0
 15 16  1  0
 16 17  2  0
 17 18  1  0
 18 19  2  0
 14 20  1  0
  3 21  1  0
 21 22  1  0
 22 23  1  0
 19 10  1  0
 16 11  1  0
  1 24  1  0
  1 25  1  0
  1 26  1  0
  2 27  1  0
  2 28  1  0
  4 29  1  0
  4 30  1  0
  5 31  1  0
  5 32  1  0
  6 33  1  0
  6 34  1  0
  7 35  1  0
  8 36  1  0
  8 37  1  0
  8 38  1  0
  9 39  1  0
 12 40  1  0
 13 41  1  0
 15 42  1  0
 18 43  1  0
 19 44  1  0
 21 45  1  0
 21 46  1  0
 22 47  1  0
 22 48  1  0
 23 49  1  0
M  END
