
     RDKit          3D

 33 34  0  0  0  0  0  0  0  0999 V2000
  -15.3870    6.5310   -0.0710 C   0  0  0  0  0  0  0  0  0  0  0  0
  -14.1630    5.7000    0.2930 C   0  0  0  0  0  0  0  0  0  0  0  0
  -14.4750    4.2290    0.5680 C   0  0  0  0  0  0  0  0  0  0  0  0
  -13.1080    3.3870    1.4380 S   0  0  0  0  0  0  0  0  0  0  0  0
  -11.9890    3.1580    0.0640 C   0  0  0  0  0  0  0  0  0  0  0  0
  -12.5040    2.7240   -1.1660 C   0  0  0  0  0  0  0  0  0  0  0  0
  -11.6210    2.5500   -2.2410 C   0  0  0  0  0  0  0  0  0  0  0  0
  -10.2680    2.8200   -2.0630 C   0  0  0  0  0  0  0  0  0  0  0  0
   -9.7260    3.2640   -0.8580 C   0  0  0  0  0  0  0  0  0  0  0  0
  -10.6220    3.4300    0.2070 C   0  0  0  0  0  0  0  0  0  0  0  0
   -9.7120    2.5530   -3.2870 N   0  0  0  0  0  0  0  0  0  0  0  0
  -10.7100    2.1440   -4.1330 C   0  0  0  0  0  0  0  0  0  0  0  0
  -11.8740    2.1320   -3.5270 N   0  0  0  0  0  0  0  0  0  0  0  0
  -10.5140    1.7960   -5.4400 N   0  0  0  0  0  0  0  0  0  0  0  0
   -9.2930    1.8170   -6.0450 C   0  0  0  0  0  0  0  0  0  0  0  0
   -8.2350    2.1400   -5.5190 O   0  0  0  0  0  0  0  0  0  0  0  0
   -9.4270    1.4210   -7.3360 O   0  0  0  0  0  0  0  0  0  0  0  0
   -9.6930    2.4860   -8.2510 C   0  0  0  0  0  0  0  0  0  0  0  0
  -15.8866    6.8702    0.8485 H   0  0  0  0  0  0  0  0  0  0  0  0
  -15.0746    7.4045   -0.6621 H   0  0  0  0  0  0  0  0  0  0  0  0
  -16.0836    5.9183   -0.6621 H   0  0  0  0  0  0  0  0  0  0  0  0
  -13.4476    5.7527   -0.5410 H   0  0  0  0  0  0  0  0  0  0  0  0
  -13.7559    6.1205    1.2244 H   0  0  0  0  0  0  0  0  0  0  0  0
  -15.3809    4.1688    1.1890 H   0  0  0  0  0  0  0  0  0  0  0  0
  -14.6201    3.7271   -0.4000 H   0  0  0  0  0  0  0  0  0  0  0  0
  -13.5791    2.5241   -1.2850 H   0  0  0  0  0  0  0  0  0  0  0  0
   -8.6516    3.4731   -0.7486 H   0  0  0  0  0  0  0  0  0  0  0  0
  -10.2431    3.7821    1.1778 H   0  0  0  0  0  0  0  0  0  0  0  0
  -12.7842    1.8660   -3.9291 H   0  0  0  0  0  0  0  0  0  0  0  0
  -11.3302    1.5031   -5.9958 H   0  0  0  0  0  0  0  0  0  0  0  0
   -9.9222    3.4035   -7.6891 H   0  0  0  0  0  0  0  0  0  0  0  0
   -8.8094    2.6548   -8.8841 H   0  0  0  0  0  0  0  0  0  0  0  0
  -10.5522    2.2195   -8.8841 H   0  0  0  0  0  0  0  0  0  0  0  0
  1  2  1  0
  2  3  1  0
  3  4  1  0
  4  5  1  0
  5  6  2  0
  6  7  1  0
  7  8  2  0
  8  9  1  0
  9 10  2  0
  8 11  1  0
 11 12  2  0
 12 13  1  0
 12 14  1  0
 14 15  1  0
 15 16  2  0
 15 17  1  0
 17 18  1  0
 10  5  1  0
 13  7  1  0
  1 19  1  0
  1 20  1  0
  1 21  1  0
  2 22  1  0
  2 23  1  0
  3 24  1  0
  3 25  1  0
  6 26  1  0
  9 27  1  0
 10 28  1  0
 13 29  1  0
 14 30  1  0
 18 31  1  0
 18 32  1  0
 18 33  1  0
M  END
