
     RDKit          3D

 50 50  0  0  0  0  0  0  0  0999 V2000
   -9.6870    4.7680    4.0020 C   0  0  0  0  0  0  0  0  0  0  0  0
   -8.8990    3.8590    3.0740 C   0  0  0  0  0  0  0  0  0  0  0  0
   -9.1180    4.1610    1.5820 C   0  0  0  0  0  0  0  0  0  0  0  0
   -7.9260    3.7920    0.6810 C   0  0  0  0  0  0  0  0  0  0  0  0
   -6.5830    3.7410    1.3990 C   0  0  0  0  0  0  0  0  0  0  0  0
  -10.2490    3.4160    1.1050 O   0  0  0  0  0  0  0  0  0  0  0  0
  -10.7210    3.8140   -0.1920 C   0  0  2  0  0  0  0  0  0  0  0  0
  -11.9720    4.6000    0.0800 C   0  0  0  0  0  0  0  0  0  0  0  0
  -13.1540    3.9880    0.2790 C   0  0  0  0  0  0  0  0  0  0  0  0
  -13.2140    2.4880    0.2020 C   0  0  0  0  0  0  0  0  0  0  0  0
  -12.4010    1.9540   -0.9890 C   0  0  2  0  0  0  0  0  0  0  0  0
  -10.9550    2.5590   -1.0910 C   0  0  1  0  0  0  0  0  0  0  0  0
  -10.6470    2.8190   -2.5080 N   0  0  0  0  0  0  0  0  0  0  0  0
  -10.0980    1.8880   -3.3470 C   0  0  0  0  0  0  0  0  0  0  0  0
   -9.7050    0.7880   -2.9750 O   0  0  0  0  0  0  0  0  0  0  0  0
  -10.0090    2.3240   -4.7850 C   0  0  0  0  0  0  0  0  0  0  0  0
  -13.1620    2.1380   -2.2650 N   0  0  0  0  0  0  0  0  0  0  0  0
  -14.4150    4.7150    0.5750 C   0  0  0  0  0  0  0  0  0  0  0  0
  -15.1350    4.4410    1.5230 O   0  0  0  0  0  0  0  0  0  0  0  0
  -14.6510    5.6860   -0.3430 O   0  0  0  0  0  0  0  0  0  0  0  0
  -14.9310    6.9900    0.1830 C   0  0  0  0  0  0  0  0  0  0  0  0
  -14.1470    8.0400   -0.5820 C   0  0  0  0  0  0  0  0  0  0  0  0
   -9.4622    4.5087    5.0471 H   0  0  0  0  0  0  0  0  0  0  0  0
   -9.4060    5.8150    3.8154 H   0  0  0  0  0  0  0  0  0  0  0  0
  -10.7633    4.6384    3.8154 H   0  0  0  0  0  0  0  0  0  0  0  0
   -7.8287    3.9765    3.2989 H   0  0  0  0  0  0  0  0  0  0  0  0
   -9.2541    2.8329    3.2503 H   0  0  0  0  0  0  0  0  0  0  0  0
   -9.2653    5.2495    1.5221 H   0  0  0  0  0  0  0  0  0  0  0  0
   -8.1196    2.8014    0.2437 H   0  0  0  0  0  0  0  0  0  0  0  0
   -7.8468    4.5877   -0.0744 H   0  0  0  0  0  0  0  0  0  0  0  0
   -6.7482    3.7473    2.4865 H   0  0  0  0  0  0  0  0  0  0  0  0
   -6.0497    2.8220    1.1144 H   0  0  0  0  0  0  0  0  0  0  0  0
   -5.9816    4.6170    1.1144 H   0  0  0  0  0  0  0  0  0  0  0  0
  -10.0005    4.4283   -0.7519 H   0  0  0  0  0  0  0  0  0  0  0  0
  -11.9209    5.6982    0.1173 H   0  0  0  0  0  0  0  0  0  0  0  0
  -12.8060    2.0654    1.1320 H   0  0  0  0  0  0  0  0  0  0  0  0
  -14.2641    2.1902    0.0655 H   0  0  0  0  0  0  0  0  0  0  0  0
  -12.2546    0.8787   -0.8095 H   0  0  0  0  0  0  0  0  0  0  0  0
  -10.2522    1.8143   -0.6891 H   0  0  0  0  0  0  0  0  0  0  0  0
  -10.8565    3.7531   -2.8881 H   0  0  0  0  0  0  0  0  0  0  0  0
   -9.7892    3.4009   -4.8287 H   0  0  0  0  0  0  0  0  0  0  0  0
   -9.2064    1.7652   -5.2886 H   0  0  0  0  0  0  0  0  0  0  0  0
  -10.9664    2.1245   -5.2886 H   0  0  0  0  0  0  0  0  0  0  0  0
  -14.1411    2.3747   -2.0498 H   0  0  0  0  0  0  0  0  0  0  0  0
  -12.7366    2.9004   -2.8116 H   0  0  0  0  0  0  0  0  0  0  0  0
  -16.0069    7.1977    0.0871 H   0  0  0  0  0  0  0  0  0  0  0  0
  -14.6367    7.0218    1.2424 H   0  0  0  0  0  0  0  0  0  0  0  0
  -13.6447    8.7127    0.1288 H   0  0  0  0  0  0  0  0  0  0  0  0
  -13.3943    7.5469   -1.2147 H   0  0  0  0  0  0  0  0  0  0  0  0
  -14.8336    8.6216   -1.2147 H   0  0  0  0  0  0  0  0  0  0  0  0
  1  2  1  0
  2  3  1  0
  3  4  1  0
  4  5  1  0
  3  6  1  0
  6  7  1  0
  7  8  1  0
  8  9  2  0
  9 10  1  0
 10 11  1  0
 11 12  1  0
 12 13  1  0
 13 14  1  0
 14 15  2  0
 14 16  1  0
 11 17  1  0
  9 18  1  0
 18 19  2  0
 18 20  1  0
 20 21  1  0
 21 22  1  0
 12  7  1  0
  1 23  1  0
  1 24  1  0
  1 25  1  0
  2 26  1  0
  2 27  1  0
  3 28  1  0
  4 29  1  0
  4 30  1  0
  5 31  1  0
  5 32  1  0
  5 33  1  0
  7 34  1  6
  8 35  1  0
 10 36  1  0
 10 37  1  0
 11 38  1  6
 12 39  1  1
 13 40  1  0
 16 41  1  0
 16 42  1  0
 16 43  1  0
 17 44  1  0
 17 45  1  0
 21 46  1  0
 21 47  1  0
 22 48  1  0
 22 49  1  0
 22 50  1  0
M  END
