
     RDKit          3D

 43 46  0  0  0  0  0  0  0  0999 V2000
  -25.0430   -1.9040    7.9680 C   0  0  0  0  0  0  0  0  0  0  0  0
  -24.1960   -2.2840    9.1650 C   0  0  0  0  0  0  0  0  0  0  0  0
  -22.9640   -1.0340    9.5100 S   0  0  0  0  0  0  0  0  0  0  0  0
  -23.6230    0.2370    9.7130 O   0  0  0  0  0  0  0  0  0  0  0  0
  -22.0120   -1.5560   10.4670 O   0  0  0  0  0  0  0  0  0  0  0  0
  -22.1640   -0.9550    8.0170 N   0  0  0  0  0  0  0  0  0  0  0  0
  -21.2760   -2.0290    7.4650 C   0  0  0  0  0  0  0  0  0  0  0  0
  -20.0560   -1.0750    7.5140 C   0  0  0  0  0  0  0  0  0  0  0  0
  -21.0990    0.0540    7.7060 C   0  0  0  0  0  0  0  0  0  0  0  0
  -19.0810   -1.3520    8.6520 C   0  0  0  0  0  0  0  0  0  0  0  0
  -19.0680   -2.7750    9.0180 C   0  0  0  0  0  0  0  0  0  0  0  0
  -19.0330   -3.8900    9.3340 N   0  0  0  0  0  0  0  0  0  0  0  0
  -19.3710   -1.0430    6.2040 N   0  0  0  0  0  0  0  0  0  0  0  0
  -18.0250   -1.1460    6.0090 C   0  0  0  0  0  0  0  0  0  0  0  0
  -17.8210   -1.1210    4.6410 C   0  0  0  0  0  0  0  0  0  0  0  0
  -19.1270   -1.0630    4.1100 C   0  0  0  0  0  0  0  0  0  0  0  0
  -20.0720   -1.0150    5.0540 N   0  0  0  0  0  0  0  0  0  0  0  0
  -16.5190   -1.2090    4.0190 C   0  0  0  0  0  0  0  0  0  0  0  0
  -15.8000   -0.0860    3.5900 C   0  0  0  0  0  0  0  0  0  0  0  0
  -15.9380    1.3330    3.5900 C   0  0  0  0  0  0  0  0  0  0  0  0
  -14.8180    1.8710    2.9890 C   0  0  0  0  0  0  0  0  0  0  0  0
  -14.0000    0.8330    2.6310 N   0  0  0  0  0  0  0  0  0  0  0  0
  -14.5730   -0.3540    2.9980 C   0  0  0  0  0  0  0  0  0  0  0  0
  -14.0100   -1.5540    2.8010 N   0  0  0  0  0  0  0  0  0  0  0  0
  -14.7820   -2.5470    3.2670 C   0  0  0  0  0  0  0  0  0  0  0  0
  -15.9830   -2.4460    3.8640 N   0  0  0  0  0  0  0  0  0  0  0  0
  -25.9957   -1.4766    8.3138 H   0  0  0  0  0  0  0  0  0  0  0  0
  -24.5065   -1.1603    7.3605 H   0  0  0  0  0  0  0  0  0  0  0  0
  -25.2418   -2.7992    7.3605 H   0  0  0  0  0  0  0  0  0  0  0  0
  -24.8476   -2.3975   10.0439 H   0  0  0  0  0  0  0  0  0  0  0  0
  -23.6795   -3.2288    8.9399 H   0  0  0  0  0  0  0  0  0  0  0  0
  -21.1808   -2.9087    8.1186 H   0  0  0  0  0  0  0  0  0  0  0  0
  -21.5424   -2.5330    6.5242 H   0  0  0  0  0  0  0  0  0  0  0  0
  -20.8717    0.7341    8.5401 H   0  0  0  0  0  0  0  0  0  0  0  0
  -21.2597    0.7954    6.9094 H   0  0  0  0  0  0  0  0  0  0  0  0
  -18.0700   -1.0553    8.3362 H   0  0  0  0  0  0  0  0  0  0  0  0
  -19.4035   -0.7735    9.5302 H   0  0  0  0  0  0  0  0  0  0  0  0
  -17.2526   -1.2321    6.7874 H   0  0  0  0  0  0  0  0  0  0  0  0
  -19.3447   -1.0578    3.0318 H   0  0  0  0  0  0  0  0  0  0  0  0
  -16.7881    1.8998    3.9976 H   0  0  0  0  0  0  0  0  0  0  0  0
  -14.6186    2.9406    2.8269 H   0  0  0  0  0  0  0  0  0  0  0  0
  -13.0908    0.9309    2.1571 H   0  0  0  0  0  0  0  0  0  0  0  0
  -14.3854   -3.5659    3.1465 H   0  0  0  0  0  0  0  0  0  0  0  0
  1  2  1  0
  2  3  1  0
  3  4  2  0
  3  5  2  0
  3  6  1  0
  6  7  1  0
  7  8  1  0
  8  9  1  0
  8 10  1  0
 10 11  1  0
 11 12  3  0
  8 13  1  0
 13 14  1  0
 14 15  2  0
 15 16  1  0
 16 17  2  0
 15 18  1  0
 18 19  2  0
 19 20  1  0
 20 21  2  0
 21 22  1  0
 22 23  1  0
 23 24  2  0
 24 25  1  0
 25 26  2  0
  9  6  1  0
 17 13  1  0
 26 18  1  0
 23 19  1  0
  1 27  1  0
  1 28  1  0
  1 29  1  0
  2 30  1  0
  2 31  1  0
  7 32  1  0
  7 33  1  0
  9 34  1  0
  9 35  1  0
 10 36  1  0
 10 37  1  0
 14 38  1  0
 16 39  1  0
 20 40  1  0
 21 41  1  0
 22 42  1  0
 25 43  1  0
M  END
