
     RDKit          3D

 42 43  0  0  0  0  0  0  0  0999 V2000
  -15.3570    8.2850   -1.2820 C   0  0  0  0  0  0  0  0  0  0  0  0
  -15.5770    7.1250   -0.3150 C   0  0  0  0  0  0  0  0  0  0  0  0
  -16.4700    7.5450    0.8470 C   0  0  0  0  0  0  0  0  0  0  0  0
  -14.2550    6.6100    0.2160 C   0  0  0  0  0  0  0  0  0  0  0  0
  -13.1520    7.0640   -0.0590 O   0  0  0  0  0  0  0  0  0  0  0  0
  -14.4660    5.5640    1.0660 O   0  0  0  0  0  0  0  0  0  0  0  0
  -14.5510    4.2720    0.4350 C   0  0  0  0  0  0  0  0  0  0  0  0
  -13.4810    3.3170    0.9850 C   0  0  2  0  0  0  0  0  0  0  0  0
  -12.1810    4.0450    1.3230 C   0  0  2  0  0  0  0  0  0  0  0  0
  -11.4160    3.9560    0.0140 C   0  0  2  0  0  0  0  0  0  0  0  0
  -11.7800    2.5280   -0.4260 C   0  0  1  0  0  0  0  0  0  0  0  0
  -13.1620    2.3420   -0.0430 O   0  0  0  0  0  0  0  0  0  0  0  0
  -11.6070    2.3040   -1.8550 N   0  0  0  0  0  0  0  0  0  0  0  0
  -12.6670    2.3780   -2.7300 C   0  0  0  0  0  0  0  0  0  0  0  0
  -12.4880    2.2290   -4.0400 C   0  0  0  0  0  0  0  0  0  0  0  0
  -11.0980    1.9920   -4.4870 C   0  0  0  0  0  0  0  0  0  0  0  0
  -10.0950    1.9410   -3.6590 N   0  0  0  0  0  0  0  0  0  0  0  0
  -10.3010    2.0980   -2.3090 C   0  0  0  0  0  0  0  0  0  0  0  0
   -9.3540    2.0370   -1.5280 O   0  0  0  0  0  0  0  0  0  0  0  0
  -10.8510    1.8290   -5.8410 N   0  0  0  0  0  0  0  0  0  0  0  0
   -9.6350    1.1790   -6.1070 O   0  0  0  0  0  0  0  0  0  0  0  0
  -10.0320    4.2110    0.1960 O   0  0  0  0  0  0  0  0  0  0  0  0
  -11.4430    3.3260    2.3250 O   0  0  0  0  0  0  0  0  0  0  0  0
  -15.1817    9.2093   -0.7120 H   0  0  0  0  0  0  0  0  0  0  0  0
  -14.4830    8.0735   -1.9155 H   0  0  0  0  0  0  0  0  0  0  0  0
  -16.2478    8.4082   -1.9155 H   0  0  0  0  0  0  0  0  0  0  0  0
  -16.0770    6.3181   -0.8708 H   0  0  0  0  0  0  0  0  0  0  0  0
  -15.9695    7.3096    1.7978 H   0  0  0  0  0  0  0  0  0  0  0  0
  -16.6602    8.6270    0.7908 H   0  0  0  0  0  0  0  0  0  0  0  0
  -17.4247    7.0015    0.7908 H   0  0  0  0  0  0  0  0  0  0  0  0
  -15.5464    3.8441    0.6250 H   0  0  0  0  0  0  0  0  0  0  0  0
  -14.3846    4.3988   -0.6449 H   0  0  0  0  0  0  0  0  0  0  0  0
  -13.8852    2.8556    1.8981 H   0  0  0  0  0  0  0  0  0  0  0  0
  -12.3447    5.0642    1.7029 H   0  0  0  0  0  0  0  0  0  0  0  0
  -11.6710    4.7051   -0.7501 H   0  0  0  0  0  0  0  0  0  0  0  0
  -11.1071    1.8036    0.0561 H   0  0  0  0  0  0  0  0  0  0  0  0
  -13.6786    2.5634   -2.3398 H   0  0  0  0  0  0  0  0  0  0  0  0
  -13.3263    2.2792   -4.7505 H   0  0  0  0  0  0  0  0  0  0  0  0
  -11.4943    2.1520   -6.5777 H   0  0  0  0  0  0  0  0  0  0  0  0
   -9.1933    0.9429   -5.2530 H   0  0  0  0  0  0  0  0  0  0  0  0
   -9.8279    4.2486    1.1640 H   0  0  0  0  0  0  0  0  0  0  0  0
  -11.7396    3.6150    3.2242 H   0  0  0  0  0  0  0  0  0  0  0  0
  1  2  1  0
  2  3  1  0
  2  4  1  0
  4  5  2  0
  4  6  1  0
  6  7  1  0
  7  8  1  0
  8  9  1  0
  9 10  1  0
 10 11  1  0
 11 12  1  0
 11 13  1  0
 13 14  1  0
 14 15  2  0
 15 16  1  0
 16 17  2  0
 17 18  1  0
 18 19  2  0
 16 20  1  0
 20 21  1  0
 10 22  1  0
  9 23  1  0
 12  8  1  0
 18 13  1  0
  1 24  1  0
  1 25  1  0
  1 26  1  0
  2 27  1  0
  3 28  1  0
  3 29  1  0
  3 30  1  0
  7 31  1  0
  7 32  1  0
  8 33  1  1
  9 34  1  1
 10 35  1  6
 11 36  1  1
 14 37  1  0
 15 38  1  0
 20 39  1  0
 21 40  1  0
 22 41  1  0
 23 42  1  0
M  END
