
     RDKit          3D

 65 67  0  0  0  0  0  0  0  0999 V2000
   -9.2550    3.4570   -0.2410 C   0  0  0  0  0  0  0  0  0  0  0  0
  -10.5940    3.4490   -0.9630 C   0  0  0  0  0  0  0  0  0  0  0  0
  -11.7790    3.7750   -0.0430 C   0  0  2  0  0  0  0  0  0  0  0  0
  -11.6900    3.0770    1.3110 C   0  0  0  0  0  0  0  0  0  0  0  0
  -13.0820    3.3780   -0.7150 C   0  0  0  0  0  0  0  0  0  0  0  0
  -13.1730    2.7110   -1.7360 O   0  0  0  0  0  0  0  0  0  0  0  0
  -14.1350    3.8760   -0.0070 O   0  0  0  0  0  0  0  0  0  0  0  0
  -13.9200    5.1350    0.6780 C   0  0  1  0  0  0  0  0  0  0  0  0
  -13.6810    6.2120   -0.3980 C   0  0  0  0  0  0  0  0  0  0  0  0
  -14.2880    7.5740   -0.0680 C   0  0  2  0  0  0  0  0  0  0  0  0
  -15.7360    7.3890    0.2900 C   0  0  0  0  0  0  0  0  0  0  0  0
  -16.1300    6.3740    1.0800 C   0  0  0  0  0  0  0  0  0  0  0  0
  -15.1000    5.4170    1.6690 C   0  0  1  0  0  0  0  0  0  0  0  0
  -15.7430    4.1150    2.2580 C   0  0  2  0  0  0  0  0  0  0  0  0
  -17.0050    4.4310    3.1130 C   0  0  2  0  0  0  0  0  0  0  0  0
  -17.9320    5.3630    2.3780 C   0  0  0  0  0  0  0  0  0  0  0  0
  -17.5200    6.2320    1.4500 C   0  0  0  0  0  0  0  0  0  0  0  0
  -16.7100    5.0140    4.4980 C   0  0  0  0  0  0  0  0  0  0  0  0
  -14.7010    3.2470    3.0100 C   0  0  0  0  0  0  0  0  0  0  0  0
  -14.5490    1.8400    2.4210 C   0  0  0  0  0  0  0  0  0  0  0  0
  -14.9870    0.7200    3.3770 C   0  0  2  0  0  0  0  0  0  0  0  0
  -14.9280   -0.6680    2.7430 C   0  0  0  0  0  0  0  0  0  0  0  0
  -15.5200   -1.7210    3.6810 C   0  0  2  0  0  0  0  0  0  0  0  0
  -16.2460   -1.1240    4.8750 C   0  0  0  0  0  0  0  0  0  0  0  0
  -17.0360    0.0850    4.4730 C   0  0  0  0  0  0  0  0  0  0  0  0
  -18.1990    0.2580    4.8140 O   0  0  0  0  0  0  0  0  0  0  0  0
  -16.3580    1.0000    3.7380 O   0  0  0  0  0  0  0  0  0  0  0  0
  -14.4510   -2.5390    4.1580 O   0  0  0  0  0  0  0  0  0  0  0  0
  -14.1240    8.5280   -1.2510 C   0  0  0  0  0  0  0  0  0  0  0  0
   -9.4245    3.4560    0.8459 H   0  0  0  0  0  0  0  0  0  0  0  0
   -8.6808    2.5623   -0.5234 H   0  0  0  0  0  0  0  0  0  0  0  0
   -8.6915    4.3585   -0.5234 H   0  0  0  0  0  0  0  0  0  0  0  0
  -10.5611    4.1968   -1.7690 H   0  0  0  0  0  0  0  0  0  0  0  0
  -10.7508    2.4313   -1.3498 H   0  0  0  0  0  0  0  0  0  0  0  0
  -11.7468    4.8597    0.1368 H   0  0  0  0  0  0  0  0  0  0  0  0
  -11.7850    3.8221    2.1146 H   0  0  0  0  0  0  0  0  0  0  0  0
  -12.5013    2.3392    1.3972 H   0  0  0  0  0  0  0  0  0  0  0  0
  -10.7195    2.5664    1.3972 H   0  0  0  0  0  0  0  0  0  0  0  0
  -13.0278    5.1228    1.3213 H   0  0  0  0  0  0  0  0  0  0  0  0
  -12.5956    6.3395   -0.5230 H   0  0  0  0  0  0  0  0  0  0  0  0
  -14.1776    5.8588   -1.3138 H   0  0  0  0  0  0  0  0  0  0  0  0
  -13.7644    8.0202    0.7903 H   0  0  0  0  0  0  0  0  0  0  0  0
  -16.4848    8.0942   -0.0999 H   0  0  0  0  0  0  0  0  0  0  0  0
  -14.6532    5.9314    2.5326 H   0  0  0  0  0  0  0  0  0  0  0  0
  -16.0923    3.5054    1.4116 H   0  0  0  0  0  0  0  0  0  0  0  0
  -17.4811    3.4529    3.2761 H   0  0  0  0  0  0  0  0  0  0  0  0
  -19.0050    5.3265    2.6177 H   0  0  0  0  0  0  0  0  0  0  0  0
  -18.2678    6.8637    0.9483 H   0  0  0  0  0  0  0  0  0  0  0  0
  -17.0628    4.3167    5.2721 H   0  0  0  0  0  0  0  0  0  0  0  0
  -15.6262    5.1665    4.6084 H   0  0  0  0  0  0  0  0  0  0  0  0
  -17.2290    5.9776    4.6084 H   0  0  0  0  0  0  0  0  0  0  0  0
  -13.7254    3.7529    2.9630 H   0  0  0  0  0  0  0  0  0  0  0  0
  -15.0573    3.1316    4.0443 H   0  0  0  0  0  0  0  0  0  0  0  0
  -15.1609    1.7773    1.5090 H   0  0  0  0  0  0  0  0  0  0  0  0
  -13.4782    1.6899    2.2190 H   0  0  0  0  0  0  0  0  0  0  0  0
  -14.3033    0.7048    4.2386 H   0  0  0  0  0  0  0  0  0  0  0  0
  -15.5003   -0.6597    1.8036 H   0  0  0  0  0  0  0  0  0  0  0  0
  -13.8754   -0.9217    2.5488 H   0  0  0  0  0  0  0  0  0  0  0  0
  -16.2633   -2.2956    3.1088 H   0  0  0  0  0  0  0  0  0  0  0  0
  -16.9293   -1.8773    5.2942 H   0  0  0  0  0  0  0  0  0  0  0  0
  -15.4995   -0.8220    5.6243 H   0  0  0  0  0  0  0  0  0  0  0  0
  -14.4516   -2.5386    5.1480 H   0  0  0  0  0  0  0  0  0  0  0  0
  -13.9487    9.5479   -0.8780 H   0  0  0  0  0  0  0  0  0  0  0  0
  -13.2675    8.2092   -1.8632 H   0  0  0  0  0  0  0  0  0  0  0  0
  -15.0378    8.5135   -1.8632 H   0  0  0  0  0  0  0  0  0  0  0  0
  1  2  1  0
  2  3  1  0
  3  4  1  0
  3  5  1  0
  5  6  2  0
  5  7  1  0
  7  8  1  0
  8  9  1  0
  9 10  1  0
 10 11  1  0
 11 12  2  0
 12 13  1  0
 13 14  1  0
 14 15  1  0
 15 16  1  0
 16 17  2  0
 15 18  1  0
 14 19  1  0
 19 20  1  0
 20 21  1  0
 21 22  1  0
 22 23  1  0
 23 24  1  0
 24 25  1  0
 25 26  2  0
 25 27  1  0
 23 28  1  0
 10 29  1  0
 13  8  1  0
 17 12  1  0
 27 21  1  0
  1 30  1  0
  1 31  1  0
  1 32  1  0
  2 33  1  0
  2 34  1  0
  3 35  1  1
  4 36  1  0
  4 37  1  0
  4 38  1  0
  8 39  1  1
  9 40  1  0
  9 41  1  0
 10 42  1  1
 11 43  1  0
 13 44  1  1
 14 45  1  6
 15 46  1  1
 16 47  1  0
 17 48  1  0
 18 49  1  0
 18 50  1  0
 18 51  1  0
 19 52  1  0
 19 53  1  0
 20 54  1  0
 20 55  1  0
 21 56  1  1
 22 57  1  0
 22 58  1  0
 23 59  1  6
 24 60  1  0
 24 61  1  0
 28 62  1  0
 29 63  1  0
 29 64  1  0
 29 65  1  0
M  END
