
     RDKit          3D

 54 57  0  0  0  0  0  0  0  0999 V2000
  -13.4330   -2.8680   -0.7850 C   0  0  0  0  0  0  0  0  0  0  0  0
  -13.3960   -4.4030   -0.9970 C   0  0  2  0  0  0  0  0  0  0  0  0
  -13.6550   -5.1450    0.3320 C   0  0  0  0  0  0  0  0  0  0  0  0
  -12.4860   -5.0620    1.3400 C   0  0  1  0  0  0  0  0  0  0  0  0
  -11.0940   -5.4030    0.7230 C   0  0  1  0  0  0  0  0  0  0  0  0
  -10.8510   -4.6480   -0.6320 C   0  0  2  0  0  0  0  0  0  0  0  0
  -12.0480   -4.9110   -1.5580 C   0  0  2  0  0  0  0  0  0  0  0  0
  -12.0260   -4.3590   -2.9800 C   0  0  0  0  0  0  0  0  0  0  0  0
  -13.4990   -4.4180   -3.4400 C   0  0  0  0  0  0  0  0  0  0  0  0
  -14.3310   -4.7870   -2.1890 C   0  0  2  0  0  0  0  0  0  0  0  0
  -15.7510   -4.2050   -2.0930 C   0  0  0  0  0  0  0  0  0  0  0  0
  -16.4920   -4.5320   -1.1540 O   0  0  0  0  0  0  0  0  0  0  0  0
  -16.2610   -3.2620   -3.1730 C   0  0  0  0  0  0  0  0  0  0  0  0
  -16.7150   -2.0330   -2.6210 O   0  0  0  0  0  0  0  0  0  0  0  0
  -14.5140   -6.2150   -2.2310 O   0  0  0  0  0  0  0  0  0  0  0  0
   -9.5440   -5.1140   -1.3020 C   0  0  0  0  0  0  0  0  0  0  0  0
   -8.3430   -5.0280   -0.3680 C   0  0  0  0  0  0  0  0  0  0  0  0
   -8.6240   -5.7760    0.9090 C   0  0  0  0  0  0  0  0  0  0  0  0
   -7.8450   -6.8080    1.2800 C   0  0  0  0  0  0  0  0  0  0  0  0
   -8.1250   -7.6000    2.4950 C   0  0  0  0  0  0  0  0  0  0  0  0
   -7.4040   -8.5320    2.8270 O   0  0  0  0  0  0  0  0  0  0  0  0
   -9.3120   -7.2270    3.2850 C   0  0  0  0  0  0  0  0  0  0  0  0
  -10.0880   -6.1980    2.9190 C   0  0  0  0  0  0  0  0  0  0  0  0
   -9.8580   -5.3140    1.6990 C   0  0  2  0  0  0  0  0  0  0  0  0
   -9.5730   -3.8960    2.2410 C   0  0  0  0  0  0  0  0  0  0  0  0
  -12.5230   -3.8060    2.0010 O   0  0  0  0  0  0  0  0  0  0  0  0
  -13.4383   -2.6467    0.2925 H   0  0  0  0  0  0  0  0  0  0  0  0
  -12.5456   -2.4123   -1.2485 H   0  0  0  0  0  0  0  0  0  0  0  0
  -14.3413   -2.4556   -1.2485 H   0  0  0  0  0  0  0  0  0  0  0  0
  -14.5484   -4.7088    0.8026 H   0  0  0  0  0  0  0  0  0  0  0  0
  -13.7827   -6.2085    0.0816 H   0  0  0  0  0  0  0  0  0  0  0  0
  -12.6278   -5.8527    2.0914 H   0  0  0  0  0  0  0  0  0  0  0  0
  -11.1598   -6.4797    0.5077 H   0  0  0  0  0  0  0  0  0  0  0  0
  -10.7541   -3.5702   -0.4348 H   0  0  0  0  0  0  0  0  0  0  0  0
  -11.9486   -6.0057   -1.6007 H   0  0  0  0  0  0  0  0  0  0  0  0
  -11.6569   -3.3228   -2.9893 H   0  0  0  0  0  0  0  0  0  0  0  0
  -11.3580   -4.9311   -3.6407 H   0  0  0  0  0  0  0  0  0  0  0  0
  -13.8148   -3.4401   -3.8324 H   0  0  0  0  0  0  0  0  0  0  0  0
  -13.6372   -5.1562   -4.2437 H   0  0  0  0  0  0  0  0  0  0  0  0
  -15.4452   -3.0557   -3.8815 H   0  0  0  0  0  0  0  0  0  0  0  0
  -17.1084   -3.7457   -3.6808 H   0  0  0  0  0  0  0  0  0  0  0  0
  -16.6948   -2.0877   -1.6327 H   0  0  0  0  0  0  0  0  0  0  0  0
  -14.5594   -6.5692   -1.3076 H   0  0  0  0  0  0  0  0  0  0  0  0
   -9.6661   -6.1589   -1.6234 H   0  0  0  0  0  0  0  0  0  0  0  0
   -9.3509   -4.4468   -2.1549 H   0  0  0  0  0  0  0  0  0  0  0  0
   -7.4654   -5.4699   -0.8626 H   0  0  0  0  0  0  0  0  0  0  0  0
   -8.1474   -3.9719   -0.1304 H   0  0  0  0  0  0  0  0  0  0  0  0
   -6.9744   -7.0697    0.6607 H   0  0  0  0  0  0  0  0  0  0  0  0
   -9.5645   -7.8018    4.1882 H   0  0  0  0  0  0  0  0  0  0  0  0
  -10.9609   -5.9732    3.5495 H   0  0  0  0  0  0  0  0  0  0  0  0
   -9.5771   -3.9162    3.3408 H   0  0  0  0  0  0  0  0  0  0  0  0
   -8.5890   -3.5580    1.8841 H   0  0  0  0  0  0  0  0  0  0  0  0
  -10.3500   -3.2040    1.8841 H   0  0  0  0  0  0  0  0  0  0  0  0
  -12.5188   -3.9484    2.9807 H   0  0  0  0  0  0  0  0  0  0  0  0
  2  1  1  1
  2  3  1  0
  3  4  1  0
  4  5  1  0
  5  6  1  0
  6  7  1  0
  7  8  1  0
  8  9  1  0
  9 10  1  0
 10 11  1  0
 11 12  2  0
 11 13  1  0
 13 14  1  0
 10 15  1  6
  6 16  1  0
 16 17  1  0
 17 18  1  0
 18 19  2  0
 19 20  1  0
 20 21  2  0
 20 22  1  0
 22 23  2  0
 23 24  1  0
 24 25  1  1
  4 26  1  0
  7  2  1  0
 10  2  1  0
 24  5  1  0
 24 18  1  0
  1 27  1  0
  1 28  1  0
  1 29  1  0
  3 30  1  0
  3 31  1  0
  4 32  1  1
  5 33  1  6
  6 34  1  1
  7 35  1  6
  8 36  1  0
  8 37  1  0
  9 38  1  0
  9 39  1  0
 13 40  1  0
 13 41  1  0
 14 42  1  0
 15 43  1  0
 16 44  1  0
 16 45  1  0
 17 46  1  0
 17 47  1  0
 19 48  1  0
 22 49  1  0
 23 50  1  0
 25 51  1  0
 25 52  1  0
 25 53  1  0
 26 54  1  0
M  END
