
     RDKit          3D

 40 41  0  0  0  0  0  0  0  0999 V2000
   -8.8550    3.8150    0.3150 C   0  0  0  0  0  0  0  0  0  0  0  0
  -10.0800    3.2010   -0.3590 C   0  0  0  0  0  0  0  0  0  0  0  0
   -9.7620    2.4880   -1.6860 C   0  0  0  0  0  0  0  0  0  0  0  0
  -10.9020    1.5880   -2.1750 C   0  0  0  0  0  0  0  0  0  0  0  0
  -11.0260    1.6430   -3.6970 C   0  0  0  0  0  0  0  0  0  0  0  0
  -12.4280    1.5650   -4.0920 N   0  0  0  0  0  0  0  0  0  0  0  0
  -11.1870    4.1740   -0.4930 N   0  0  0  0  0  0  0  0  0  0  0  0
  -12.3650    3.9630    0.2820 C   0  0  0  0  0  0  0  0  0  0  0  0
  -13.3300    4.9860    0.3560 C   0  0  0  0  0  0  0  0  0  0  0  0
  -14.4820    4.7670    1.1420 C   0  0  0  0  0  0  0  0  0  0  0  0
  -14.6600    3.5520    1.8290 C   0  0  0  0  0  0  0  0  0  0  0  0
  -13.7060    2.5420    1.7350 C   0  0  0  0  0  0  0  0  0  0  0  0
  -12.5670    2.7540    0.9600 C   0  0  0  0  0  0  0  0  0  0  0  0
  -13.7680    1.3190    2.3410 O   0  0  0  0  0  0  0  0  0  0  0  0
  -14.8940    1.0600    3.1700 C   0  0  0  0  0  0  0  0  0  0  0  0
  -15.4340    5.7930    1.2160 C   0  0  0  0  0  0  0  0  0  0  0  0
  -15.2330    6.9820    0.5260 C   0  0  0  0  0  0  0  0  0  0  0  0
  -14.0770    7.1090   -0.2190 C   0  0  0  0  0  0  0  0  0  0  0  0
  -13.1330    6.1480   -0.3130 N   0  0  0  0  0  0  0  0  0  0  0  0
   -8.9701    3.7573    1.4074 H   0  0  0  0  0  0  0  0  0  0  0  0
   -7.9538    3.2621    0.0115 H   0  0  0  0  0  0  0  0  0  0  0  0
   -8.7587    4.8679    0.0115 H   0  0  0  0  0  0  0  0  0  0  0  0
  -10.4265    2.4082    0.3203 H   0  0  0  0  0  0  0  0  0  0  0  0
   -9.5641    3.2503   -2.4540 H   0  0  0  0  0  0  0  0  0  0  0  0
   -8.8884    1.8431   -1.5099 H   0  0  0  0  0  0  0  0  0  0  0  0
  -10.6997    0.5514   -1.8674 H   0  0  0  0  0  0  0  0  0  0  0  0
  -11.8444    1.9432   -1.7327 H   0  0  0  0  0  0  0  0  0  0  0  0
  -10.5977    2.5880   -4.0624 H   0  0  0  0  0  0  0  0  0  0  0  0
  -10.4829    0.7911   -4.1321 H   0  0  0  0  0  0  0  0  0  0  0  0
  -13.0206    1.5320   -3.2502 H   0  0  0  0  0  0  0  0  0  0  0  0
  -12.6734    2.3936   -4.6524 H   0  0  0  0  0  0  0  0  0  0  0  0
  -11.1087    4.9810   -1.1283 H   0  0  0  0  0  0  0  0  0  0  0  0
  -15.5588    3.3990    2.4444 H   0  0  0  0  0  0  0  0  0  0  0  0
  -11.8129    1.9572    0.8793 H   0  0  0  0  0  0  0  0  0  0  0  0
  -14.5951    1.1287    4.2264 H   0  0  0  0  0  0  0  0  0  0  0  0
  -15.6803    1.8007    2.9624 H   0  0  0  0  0  0  0  0  0  0  0  0
  -15.2776    0.0502    2.9624 H   0  0  0  0  0  0  0  0  0  0  0  0
  -16.3421    5.6566    1.8216 H   0  0  0  0  0  0  0  0  0  0  0  0
  -15.9711    7.7963    0.5716 H   0  0  0  0  0  0  0  0  0  0  0  0
  -13.9158    8.0484   -0.7682 H   0  0  0  0  0  0  0  0  0  0  0  0
  1  2  1  0
  2  3  1  0
  3  4  1  0
  4  5  1  0
  5  6  1  0
  2  7  1  0
  7  8  1  0
  8  9  2  0
  9 10  1  0
 10 11  2  0
 11 12  1  0
 12 13  2  0
 12 14  1  0
 14 15  1  0
 10 16  1  0
 16 17  2  0
 17 18  1  0
 18 19  2  0
 13  8  1  0
 19  9  1  0
  1 20  1  0
  1 21  1  0
  1 22  1  0
  2 23  1  0
  3 24  1  0
  3 25  1  0
  4 26  1  0
  4 27  1  0
  5 28  1  0
  5 29  1  0
  6 30  1  0
  6 31  1  0
  7 32  1  0
 11 33  1  0
 13 34  1  0
 15 35  1  0
 15 36  1  0
 15 37  1  0
 16 38  1  0
 17 39  1  0
 18 40  1  0
M  END
