
     RDKit          3D

 30 31  0  0  0  0  0  0  0  0999 V2000
   -8.0940    4.1770    0.7460 C   0  0  0  0  0  0  0  0  0  0  0  0
   -8.6490    4.3240    1.9680 N   0  0  0  0  0  0  0  0  0  0  0  0
   -9.9600    4.0220    2.1200 C   0  0  0  0  0  0  0  0  0  0  0  0
  -10.6700    3.5440    1.0060 C   0  0  0  0  0  0  0  0  0  0  0  0
   -9.9640    3.4420   -0.1810 C   0  0  0  0  0  0  0  0  0  0  0  0
   -8.6720    3.7380   -0.3930 N   0  0  0  0  0  0  0  0  0  0  0  0
  -10.8710    2.9630   -1.0850 N   0  0  0  0  0  0  0  0  0  0  0  0
  -12.0610    2.7880   -0.4330 C   0  0  0  0  0  0  0  0  0  0  0  0
  -11.9750    3.1230    0.8380 N   0  0  0  0  0  0  0  0  0  0  0  0
  -10.6100    2.7010   -2.4810 C   0  0  0  0  0  0  0  0  0  0  0  0
  -10.1670    1.2620   -2.7290 C   0  0  0  0  0  0  0  0  0  0  0  0
   -9.8240    1.0650   -4.1010 O   0  0  0  0  0  0  0  0  0  0  0  0
   -9.3170    2.2560   -4.7210 C   0  0  0  0  0  0  0  0  0  0  0  0
   -9.2950    2.0090   -6.4950 P   0  0  0  0  0  0  0  0  0  0  0  0
   -8.0210    1.5840   -7.1500 O   0  0  0  0  0  0  0  0  0  0  0  0
  -10.4750    0.9660   -6.8070 O   0  0  0  0  0  0  0  0  0  0  0  0
   -9.8990    3.3360   -7.1650 O   0  0  0  0  0  0  0  0  0  0  0  0
  -10.5310    4.1800    3.3760 N   0  0  0  0  0  0  0  0  0  0  0  0
   -7.0315    4.4507    0.6678 H   0  0  0  0  0  0  0  0  0  0  0  0
  -12.9777    2.4133   -0.9118 H   0  0  0  0  0  0  0  0  0  0  0  0
  -11.5293    2.8916   -3.0542 H   0  0  0  0  0  0  0  0  0  0  0  0
   -9.7920    3.3638   -2.7998 H   0  0  0  0  0  0  0  0  0  0  0  0
   -9.2896    1.0421   -2.1030 H   0  0  0  0  0  0  0  0  0  0  0  0
  -10.9987    0.5888   -2.4739 H   0  0  0  0  0  0  0  0  0  0  0  0
   -9.9665    3.1085   -4.4732 H   0  0  0  0  0  0  0  0  0  0  0  0
   -8.3004    2.4664   -4.3574 H   0  0  0  0  0  0  0  0  0  0  0  0
  -10.8534    0.6315   -5.9555 H   0  0  0  0  0  0  0  0  0  0  0  0
  -10.1847    3.9636   -6.4547 H   0  0  0  0  0  0  0  0  0  0  0  0
  -11.5263    3.9579    3.5209 H   0  0  0  0  0  0  0  0  0  0  0  0
   -9.9592    4.5193    4.1627 H   0  0  0  0  0  0  0  0  0  0  0  0
  1  2  2  0
  2  3  1  0
  3  4  2  0
  4  5  1  0
  5  6  2  0
  5  7  1  0
  7  8  1  0
  8  9  2  0
  7 10  1  0
 10 11  1  0
 11 12  1  0
 12 13  1  0
 13 14  1  0
 14 15  2  0
 14 16  1  0
 14 17  1  0
  3 18  1  0
  6  1  1  0
  9  4  1  0
  1 19  1  0
  8 20  1  0
 10 21  1  0
 10 22  1  0
 11 23  1  0
 11 24  1  0
 13 25  1  0
 13 26  1  0
 16 27  1  0
 17 28  1  0
 18 29  1  0
 18 30  1  0
M  END
