
     RDKit          3D

 33 34  0  0  0  0  0  0  0  0999 V2000
  -11.3140    0.3940   -2.7650 C   0  0  0  0  0  0  0  0  0  0  0  0
  -10.3440    1.5670   -2.6440 C   0  0  2  0  0  0  0  0  0  0  0  0
  -11.1210    2.8490   -2.3090 C   0  0  0  0  0  0  0  0  0  0  0  0
  -11.2070    3.0570   -0.8770 N   0  0  0  0  0  0  0  0  0  0  0  0
  -12.3400    2.9640   -0.1150 C   0  0  0  0  0  0  0  0  0  0  0  0
  -12.1100    3.2800    1.1420 N   0  0  0  0  0  0  0  0  0  0  0  0
  -10.7600    3.5730    1.1930 C   0  0  0  0  0  0  0  0  0  0  0  0
   -9.9100    3.9700    2.2370 C   0  0  0  0  0  0  0  0  0  0  0  0
   -8.5980    4.1640    1.9640 N   0  0  0  0  0  0  0  0  0  0  0  0
   -8.1750    3.9940    0.6920 C   0  0  0  0  0  0  0  0  0  0  0  0
   -8.8960    3.6330   -0.3900 N   0  0  0  0  0  0  0  0  0  0  0  0
  -10.1800    3.4310   -0.0580 C   0  0  0  0  0  0  0  0  0  0  0  0
  -10.3440    4.1610    3.5420 N   0  0  0  0  0  0  0  0  0  0  0  0
   -9.6640    1.7840   -3.8900 O   0  0  0  0  0  0  0  0  0  0  0  0
  -10.5270    1.6960   -5.0330 C   0  0  0  0  0  0  0  0  0  0  0  0
   -9.5260    2.0660   -6.4850 P   0  0  0  0  0  0  0  0  0  0  0  0
   -9.4610    1.0220   -7.5480 O   0  0  0  0  0  0  0  0  0  0  0  0
   -8.0950    2.4800   -5.8910 O   0  0  0  0  0  0  0  0  0  0  0  0
  -10.0590    3.4920   -6.9990 O   0  0  0  0  0  0  0  0  0  0  0  0
  -11.5993    0.0490   -1.7602 H   0  0  0  0  0  0  0  0  0  0  0  0
  -12.2129    0.7163   -3.3110 H   0  0  0  0  0  0  0  0  0  0  0  0
  -10.8286   -0.4284   -3.3110 H   0  0  0  0  0  0  0  0  0  0  0  0
   -9.6184    1.3306   -1.8518 H   0  0  0  0  0  0  0  0  0  0  0  0
  -10.6074    3.7082   -2.7651 H   0  0  0  0  0  0  0  0  0  0  0  0
  -12.1420    2.7485   -2.7059 H   0  0  0  0  0  0  0  0  0  0  0  0
  -13.3231    2.6620   -0.5054 H   0  0  0  0  0  0  0  0  0  0  0  0
   -7.1041    4.1731    0.5157 H   0  0  0  0  0  0  0  0  0  0  0  0
   -9.6758    4.4531    4.2694 H   0  0  0  0  0  0  0  0  0  0  0  0
  -11.3341    4.0106    3.7827 H   0  0  0  0  0  0  0  0  0  0  0  0
  -10.9456    0.6819   -5.1121 H   0  0  0  0  0  0  0  0  0  0  0  0
  -11.3649    2.4033   -4.9454 H   0  0  0  0  0  0  0  0  0  0  0  0
   -8.1326    2.4691   -4.9018 H   0  0  0  0  0  0  0  0  0  0  0  0
  -10.2730    4.0646   -6.2202 H   0  0  0  0  0  0  0  0  0  0  0  0
  1  2  1  0
  2  3  1  0
  3  4  1  0
  4  5  1  0
  5  6  2  0
  6  7  1  0
  7  8  2  0
  8  9  1  0
  9 10  2  0
 10 11  1  0
 11 12  2  0
  8 13  1  0
  2 14  1  0
 14 15  1  0
 15 16  1  0
 16 17  2  0
 16 18  1  0
 16 19  1  0
 12  4  1  0
 12  7  1  0
  1 20  1  0
  1 21  1  0
  1 22  1  0
  2 23  1  1
  3 24  1  0
  3 25  1  0
  5 26  1  0
 10 27  1  0
 13 28  1  0
 13 29  1  0
 15 30  1  0
 15 31  1  0
 18 32  1  0
 19 33  1  0
M  END
