
     RDKit          3D

 62 64  0  0  0  0  0  0  0  0999 V2000
   -9.2480    3.2280   -1.8860 C   0  0  0  0  0  0  0  0  0  0  0  0
   -9.7700    3.4730   -0.5010 C   0  0  0  0  0  0  0  0  0  0  0  0
   -8.8990    3.6290    0.5700 C   0  0  0  0  0  0  0  0  0  0  0  0
   -7.4230    3.5900    0.6300 C   0  0  0  0  0  0  0  0  0  0  0  0
   -7.1310    3.7920    2.0310 O   0  0  0  0  0  0  0  0  0  0  0  0
   -8.2700    3.9520    2.7610 C   0  0  0  0  0  0  0  0  0  0  0  0
   -8.3690    4.1200    3.9620 O   0  0  0  0  0  0  0  0  0  0  0  0
   -9.3850    3.8630    1.8390 C   0  0  0  0  0  0  0  0  0  0  0  0
  -10.7340    3.9640    2.1260 C   0  0  0  0  0  0  0  0  0  0  0  0
  -11.6540    3.7740    1.0860 C   0  0  0  0  0  0  0  0  0  0  0  0
  -11.1540    3.4960   -0.2140 C   0  0  0  0  0  0  0  0  0  0  0  0
  -12.0550    3.2940   -1.2310 O   0  0  0  0  0  0  0  0  0  0  0  0
  -12.2250    1.8980   -1.4910 C   0  0  0  0  0  0  0  0  0  0  0  0
  -13.1430    3.7900    1.3760 C   0  0  0  0  0  0  0  0  0  0  0  0
  -13.5960    2.4540    1.9140 C   0  0  0  0  0  0  0  0  0  0  0  0
  -14.6740    2.1790    2.6770 C   0  0  0  0  0  0  0  0  0  0  0  0
  -15.7390    3.1880    3.0220 C   0  0  0  0  0  0  0  0  0  0  0  0
  -14.8890    0.8220    3.3330 C   0  0  0  0  0  0  0  0  0  0  0  0
  -16.3140    0.4630    3.7670 C   0  0  0  0  0  0  0  0  0  0  0  0
  -16.4280   -0.9190    4.3700 C   0  0  0  0  0  0  0  0  0  0  0  0
  -16.3440   -1.9480    3.7090 O   0  0  0  0  0  0  0  0  0  0  0  0
  -16.6530   -0.8470    5.7090 O   0  0  0  0  0  0  0  0  0  0  0  0
  -17.9190   -0.2980    6.1100 C   0  0  0  0  0  0  0  0  0  0  0  0
  -18.9670   -1.4180    6.2400 C   0  0  0  0  0  0  0  0  0  0  0  0
  -20.3660   -0.9550    6.2500 N   0  0  0  0  0  0  0  0  0  0  0  0
  -20.6790   -0.2600    7.5160 C   0  0  0  0  0  0  0  0  0  0  0  0
  -22.1930   -0.1900    7.7630 C   0  0  0  0  0  0  0  0  0  0  0  0
  -22.7850   -1.4860    7.9380 O   0  0  0  0  0  0  0  0  0  0  0  0
  -22.0770   -2.5230    7.2460 C   0  0  0  0  0  0  0  0  0  0  0  0
  -21.3470   -2.0310    5.9860 C   0  0  0  0  0  0  0  0  0  0  0  0
  -11.1730    4.2310    3.3920 O   0  0  0  0  0  0  0  0  0  0  0  0
   -8.2537    2.7613   -1.8259 H   0  0  0  0  0  0  0  0  0  0  0  0
   -9.9354    2.5585   -2.4238 H   0  0  0  0  0  0  0  0  0  0  0  0
   -9.1722    4.1846   -2.4238 H   0  0  0  0  0  0  0  0  0  0  0  0
   -7.0421    2.6169    0.2864 H   0  0  0  0  0  0  0  0  0  0  0  0
   -6.9503    4.3438   -0.0167 H   0  0  0  0  0  0  0  0  0  0  0  0
  -12.2914    1.3529   -0.5379 H   0  0  0  0  0  0  0  0  0  0  0  0
  -13.1487    1.7422   -2.0676 H   0  0  0  0  0  0  0  0  0  0  0  0
  -11.3656    1.5251   -2.0676 H   0  0  0  0  0  0  0  0  0  0  0  0
  -13.3575    4.5707    2.1206 H   0  0  0  0  0  0  0  0  0  0  0  0
  -13.6834    3.9963    0.4404 H   0  0  0  0  0  0  0  0  0  0  0  0
  -12.9649    1.5928    1.6494 H   0  0  0  0  0  0  0  0  0  0  0  0
  -15.8258    3.2702    4.1155 H   0  0  0  0  0  0  0  0  0  0  0  0
  -15.4666    4.1671    2.6012 H   0  0  0  0  0  0  0  0  0  0  0  0
  -16.7020    2.8631    2.6012 H   0  0  0  0  0  0  0  0  0  0  0  0
  -14.5594    0.0543    2.6174 H   0  0  0  0  0  0  0  0  0  0  0  0
  -14.3148    0.8700    4.2700 H   0  0  0  0  0  0  0  0  0  0  0  0
  -16.6464    1.1982    4.5147 H   0  0  0  0  0  0  0  0  0  0  0  0
  -16.9415    0.4759    2.8636 H   0  0  0  0  0  0  0  0  0  0  0  0
  -17.8049    0.2073    7.0804 H   0  0  0  0  0  0  0  0  0  0  0  0
  -18.2553    0.4216    5.3491 H   0  0  0  0  0  0  0  0  0  0  0  0
  -18.8400   -2.1061    5.3912 H   0  0  0  0  0  0  0  0  0  0  0  0
  -18.7912   -1.8959    7.2151 H   0  0  0  0  0  0  0  0  0  0  0  0
  -20.2063   -0.8031    8.3477 H   0  0  0  0  0  0  0  0  0  0  0  0
  -20.2935    0.7680    7.4486 H   0  0  0  0  0  0  0  0  0  0  0  0
  -22.3747    0.4055    8.6698 H   0  0  0  0  0  0  0  0  0  0  0  0
  -22.6540    0.2695    6.8762 H   0  0  0  0  0  0  0  0  0  0  0  0
  -21.3341   -2.9553    7.9324 H   0  0  0  0  0  0  0  0  0  0  0  0
  -22.8233   -3.2624    6.9198 H   0  0  0  0  0  0  0  0  0  0  0  0
  -20.8156   -2.8832    5.5372 H   0  0  0  0  0  0  0  0  0  0  0  0
  -22.1109   -1.6124    5.3142 H   0  0  0  0  0  0  0  0  0  0  0  0
  -12.1435    4.2990    3.5753 H   0  0  0  0  0  0  0  0  0  0  0  0
  1  2  1  0
  2  3  2  0
  3  4  1  0
  4  5  1  0
  5  6  1  0
  6  7  2  0
  6  8  1  0
  8  9  2  0
  9 10  1  0
 10 11  2  0
 11 12  1  0
 12 13  1  0
 10 14  1  0
 14 15  1  0
 15 16  2  0
 16 17  1  0
 16 18  1  0
 18 19  1  0
 19 20  1  0
 20 21  2  0
 20 22  1  0
 22 23  1  0
 23 24  1  0
 24 25  1  0
 25 26  1  0
 26 27  1  0
 27 28  1  0
 28 29  1  0
 29 30  1  0
  9 31  1  0
 11  2  1  0
  8  3  1  0
 30 25  1  0
  1 32  1  0
  1 33  1  0
  1 34  1  0
  4 35  1  0
  4 36  1  0
 13 37  1  0
 13 38  1  0
 13 39  1  0
 14 40  1  0
 14 41  1  0
 15 42  1  0
 17 43  1  0
 17 44  1  0
 17 45  1  0
 18 46  1  0
 18 47  1  0
 19 48  1  0
 19 49  1  0
 23 50  1  0
 23 51  1  0
 24 52  1  0
 24 53  1  0
 26 54  1  0
 26 55  1  0
 27 56  1  0
 27 57  1  0
 29 58  1  0
 29 59  1  0
 30 60  1  0
 30 61  1  0
 31 62  1  0
M  END
