
     RDKit          3D

 41 44  0  0  0  0  0  0  0  0999 V2000
  -11.1870    0.5870   -3.8900 C   0  0  0  0  0  0  0  0  0  0  0  0
  -10.1420    1.5900   -4.3760 C   0  0  0  0  0  0  0  0  0  0  0  0
   -9.7570    2.4270   -3.1610 C   0  0  0  0  0  0  0  0  0  0  0  0
  -10.9580    2.3120   -2.2190 C   0  0  0  0  0  0  0  0  0  0  0  0
  -11.3480    0.8400   -2.3950 C   0  0  0  0  0  0  0  0  0  0  0  0
  -10.6440    2.6970   -0.7570 C   0  0  1  0  0  0  0  0  0  0  0  0
   -9.3180    3.4460   -0.5490 C   0  0  0  0  0  0  0  0  0  0  0  0
   -9.0410    3.8190    0.8460 C   0  0  0  0  0  0  0  0  0  0  0  0
   -8.8930    4.1570    1.9470 N   0  0  0  0  0  0  0  0  0  0  0  0
  -11.7560    3.4150   -0.1320 N   0  0  0  0  0  0  0  0  0  0  0  0
  -12.3510    4.5580   -0.5920 C   0  0  0  0  0  0  0  0  0  0  0  0
  -13.3450    4.8700    0.3120 C   0  0  0  0  0  0  0  0  0  0  0  0
  -13.2370    3.8610    1.2960 C   0  0  0  0  0  0  0  0  0  0  0  0
  -12.2920    2.9610    1.0100 N   0  0  0  0  0  0  0  0  0  0  0  0
  -14.2190    6.0190    0.2850 C   0  0  0  0  0  0  0  0  0  0  0  0
  -15.4400    6.0790    0.9670 C   0  0  0  0  0  0  0  0  0  0  0  0
  -16.2140    5.2580    1.8390 C   0  0  0  0  0  0  0  0  0  0  0  0
  -17.3620    5.9500    2.1680 C   0  0  0  0  0  0  0  0  0  0  0  0
  -17.3100    7.1660    1.5380 N   0  0  0  0  0  0  0  0  0  0  0  0
  -16.1500    7.2630    0.8190 C   0  0  0  0  0  0  0  0  0  0  0  0
  -15.7920    8.3410    0.1060 N   0  0  0  0  0  0  0  0  0  0  0  0
  -14.5970    8.1710   -0.4830 C   0  0  0  0  0  0  0  0  0  0  0  0
  -13.7960    7.0910   -0.4310 N   0  0  0  0  0  0  0  0  0  0  0  0
  -12.1427    0.7483   -4.4102 H   0  0  0  0  0  0  0  0  0  0  0  0
  -10.8766   -0.4487   -4.0925 H   0  0  0  0  0  0  0  0  0  0  0  0
   -9.2610    1.0619   -4.7697 H   0  0  0  0  0  0  0  0  0  0  0  0
  -10.5377    2.2194   -5.1868 H   0  0  0  0  0  0  0  0  0  0  0  0
   -8.8499    2.0265   -2.6848 H   0  0  0  0  0  0  0  0  0  0  0  0
   -9.5326    3.4706   -3.4266 H   0  0  0  0  0  0  0  0  0  0  0  0
  -11.7693    3.0152   -2.4586 H   0  0  0  0  0  0  0  0  0  0  0  0
  -10.6795    0.1871   -1.8146 H   0  0  0  0  0  0  0  0  0  0  0  0
  -12.3671    0.6285   -2.0391 H   0  0  0  0  0  0  0  0  0  0  0  0
  -10.5110    1.7313   -0.2473 H   0  0  0  0  0  0  0  0  0  0  0  0
   -8.4998    2.8005   -0.9010 H   0  0  0  0  0  0  0  0  0  0  0  0
   -9.3976    4.3862   -1.1144 H   0  0  0  0  0  0  0  0  0  0  0  0
  -12.0887    5.1172   -1.5022 H   0  0  0  0  0  0  0  0  0  0  0  0
  -13.8633    3.8211    2.1994 H   0  0  0  0  0  0  0  0  0  0  0  0
  -15.9437    4.2505    2.1880 H   0  0  0  0  0  0  0  0  0  0  0  0
  -18.1727    5.5903    2.8187 H   0  0  0  0  0  0  0  0  0  0  0  0
  -18.0342    7.8960    1.5969 H   0  0  0  0  0  0  0  0  0  0  0  0
  -14.2282    9.0176   -1.0806 H   0  0  0  0  0  0  0  0  0  0  0  0
  1  2  1  0
  2  3  1  0
  3  4  1  0
  4  5  1  0
  4  6  1  0
  6  7  1  0
  7  8  1  0
  8  9  3  0
  6 10  1  0
 10 11  1  0
 11 12  2  0
 12 13  1  0
 13 14  2  0
 12 15  1  0
 15 16  2  0
 16 17  1  0
 17 18  2  0
 18 19  1  0
 19 20  1  0
 20 21  2  0
 21 22  1  0
 22 23  2  0
  5  1  1  0
 14 10  1  0
 23 15  1  0
 20 16  1  0
  1 24  1  0
  1 25  1  0
  2 26  1  0
  2 27  1  0
  3 28  1  0
  3 29  1  0
  4 30  1  0
  5 31  1  0
  5 32  1  0
  6 33  1  1
  7 34  1  0
  7 35  1  0
 11 36  1  0
 13 37  1  0
 17 38  1  0
 18 39  1  0
 19 40  1  0
 22 41  1  0
M  END
