
     RDKit          3D

 45 48  0  0  0  0  0  0  0  0999 V2000
  -16.4760    0.8910    4.2530 C   0  0  0  0  0  0  0  0  0  0  0  0
  -16.3110    2.1380    3.3810 C   0  0  0  0  0  0  0  0  0  0  0  0
  -14.8350    2.3680    2.9980 C   0  0  0  0  0  0  0  0  0  0  0  0
  -14.2180    1.1200    2.3420 C   0  0  0  0  0  0  0  0  0  0  0  0
  -14.3990   -0.1230    3.2140 C   0  0  0  0  0  0  0  0  0  0  0  0
  -15.8780   -0.3520    3.5720 C   0  0  0  0  0  0  0  0  0  0  0  0
  -16.0650   -1.6030    4.4150 C   0  0  0  0  0  0  0  0  0  0  0  0
  -16.9020   -1.5610    5.5410 C   0  0  0  0  0  0  0  0  0  0  0  0
  -17.0910   -2.6970    6.3320 C   0  0  0  0  0  0  0  0  0  0  0  0
  -16.4450   -3.8850    6.0030 C   0  0  0  0  0  0  0  0  0  0  0  0
  -15.6120   -3.9470    4.8890 C   0  0  0  0  0  0  0  0  0  0  0  0
  -15.4220   -2.8100    4.0990 C   0  0  0  0  0  0  0  0  0  0  0  0
  -16.6780   -5.2850    6.9750 Cl  0  0  0  0  0  0  0  0  0  0  0  0
  -14.6170    3.6290    2.1690 C   0  0  0  0  0  0  0  0  0  0  0  0
  -15.5040    4.6380    2.0320 C   0  0  0  0  0  0  0  0  0  0  0  0
  -15.2610    5.8220    1.1770 C   0  0  0  0  0  0  0  0  0  0  0  0
  -16.1660    6.8980    1.1430 C   0  0  0  0  0  0  0  0  0  0  0  0
  -15.9500    8.0030    0.3120 C   0  0  0  0  0  0  0  0  0  0  0  0
  -14.8260    8.0540   -0.5050 C   0  0  0  0  0  0  0  0  0  0  0  0
  -13.9160    7.0000   -0.4890 C   0  0  0  0  0  0  0  0  0  0  0  0
  -14.1360    5.9000    0.3520 C   0  0  0  0  0  0  0  0  0  0  0  0
  -13.1680    4.7990    0.3670 C   0  0  0  0  0  0  0  0  0  0  0  0
  -12.2740    4.7190   -0.4640 O   0  0  0  0  0  0  0  0  0  0  0  0
  -13.3040    3.7550    1.4580 C   0  0  0  0  0  0  0  0  0  0  0  0
  -12.3420    3.0530    1.7370 O   0  0  0  0  0  0  0  0  0  0  0  0
  -16.7250    4.6750    2.6770 O   0  0  0  0  0  0  0  0  0  0  0  0
  -15.9639    1.0548    5.2126 H   0  0  0  0  0  0  0  0  0  0  0  0
  -17.5509    0.7172    4.4094 H   0  0  0  0  0  0  0  0  0  0  0  0
  -16.9034    2.0130    2.4626 H   0  0  0  0  0  0  0  0  0  0  0  0
  -16.6586    3.0094    3.9553 H   0  0  0  0  0  0  0  0  0  0  0  0
  -14.2952    2.5418    3.9406 H   0  0  0  0  0  0  0  0  0  0  0  0
  -14.7061    0.9490    1.3712 H   0  0  0  0  0  0  0  0  0  0  0  0
  -13.1397    1.2963    2.2144 H   0  0  0  0  0  0  0  0  0  0  0  0
  -14.0238   -1.0006    2.6672 H   0  0  0  0  0  0  0  0  0  0  0  0
  -13.8376    0.0267    4.1480 H   0  0  0  0  0  0  0  0  0  0  0  0
  -16.4291   -0.5162    2.6343 H   0  0  0  0  0  0  0  0  0  0  0  0
  -17.4145   -0.6238    5.8034 H   0  0  0  0  0  0  0  0  0  0  0  0
  -17.7487   -2.6526    7.2126 H   0  0  0  0  0  0  0  0  0  0  0  0
  -15.1048   -4.8885    4.6314 H   0  0  0  0  0  0  0  0  0  0  0  0
  -14.7618   -2.8615    3.2206 H   0  0  0  0  0  0  0  0  0  0  0  0
  -17.0609    6.8704    1.7820 H   0  0  0  0  0  0  0  0  0  0  0  0
  -16.6713    8.8335    0.3051 H   0  0  0  0  0  0  0  0  0  0  0  0
  -14.6567    8.9215   -1.1599 H   0  0  0  0  0  0  0  0  0  0  0  0
  -13.0262    7.0304   -1.1350 H   0  0  0  0  0  0  0  0  0  0  0  0
  -17.3353    5.4420    2.5379 H   0  0  0  0  0  0  0  0  0  0  0  0
  1  2  1  0
  2  3  1  0
  3  4  1  0
  4  5  1  0
  5  6  1  0
  6  7  1  0
  7  8  2  0
  8  9  1  0
  9 10  2  0
 10 11  1  0
 11 12  2  0
 10 13  1  0
  3 14  1  0
 14 15  2  0
 15 16  1  0
 16 17  2  0
 17 18  1  0
 18 19  2  0
 19 20  1  0
 20 21  2  0
 21 22  1  0
 22 23  2  0
 22 24  1  0
 24 25  2  0
 15 26  1  0
  6  1  1  0
 12  7  1  0
 24 14  1  0
 21 16  1  0
  1 27  1  0
  1 28  1  0
  2 29  1  0
  2 30  1  0
  3 31  1  0
  4 32  1  0
  4 33  1  0
  5 34  1  0
  5 35  1  0
  6 36  1  0
  8 37  1  0
  9 38  1  0
 11 39  1  0
 12 40  1  0
 17 41  1  0
 18 42  1  0
 19 43  1  0
 20 44  1  0
 26 45  1  0
M  END
