
     RDKit          3D

 62 65  0  0  0  0  0  0  0  0999 V2000
  -15.7480    7.2940    1.3040 C   0  0  0  0  0  0  0  0  0  0  0  0
  -14.9660    6.4150    0.2920 C   0  0  0  0  0  0  0  0  0  0  0  0
  -13.9530    7.3660   -0.3890 C   0  0  0  0  0  0  0  0  0  0  0  0
  -16.0030    5.9270   -0.7400 C   0  0  0  0  0  0  0  0  0  0  0  0
  -14.2390    5.2100    0.9440 C   0  0  0  0  0  0  0  0  0  0  0  0
  -12.8400    5.0510    0.7980 C   0  0  0  0  0  0  0  0  0  0  0  0
  -12.1250    3.9530    1.3120 C   0  0  0  0  0  0  0  0  0  0  0  0
  -12.8540    2.9660    1.9800 C   0  0  0  0  0  0  0  0  0  0  0  0
  -14.2450    3.0630    2.1720 C   0  0  0  0  0  0  0  0  0  0  0  0
  -14.9150    4.2150    1.6900 C   0  0  0  0  0  0  0  0  0  0  0  0
  -16.2690    4.3610    1.8880 O   0  0  0  0  0  0  0  0  0  0  0  0
  -16.5770    5.0160    3.1230 C   0  0  0  0  0  0  0  0  0  0  0  0
  -14.9420    1.9390    2.8290 C   0  0  0  0  0  0  0  0  0  0  0  0
  -14.4310    0.6310    2.7590 C   0  0  0  0  0  0  0  0  0  0  0  0
  -15.0840   -0.4480    3.3810 C   0  0  0  0  0  0  0  0  0  0  0  0
  -16.2850   -0.2160    4.0890 C   0  0  0  0  0  0  0  0  0  0  0  0
  -16.8000    1.0860    4.1550 C   0  0  0  0  0  0  0  0  0  0  0  0
  -16.1370    2.1470    3.5300 C   0  0  0  0  0  0  0  0  0  0  0  0
  -16.9360   -1.2910    4.7160 C   0  0  0  0  0  0  0  0  0  0  0  0
  -16.4120   -2.5800    4.6290 C   0  0  0  0  0  0  0  0  0  0  0  0
  -15.2230   -2.8130    3.9420 C   0  0  0  0  0  0  0  0  0  0  0  0
  -14.5660   -1.7510    3.3170 C   0  0  0  0  0  0  0  0  0  0  0  0
  -17.0630   -3.6530    5.3070 N   0  0  0  0  0  0  0  0  0  0  0  0
  -16.6460   -3.9010    6.9310 S   0  0  0  0  0  0  0  0  0  0  0  0
  -16.8040   -2.6790    7.6850 O   0  0  0  0  0  0  0  0  0  0  0  0
  -15.3800   -4.6040    6.8950 O   0  0  0  0  0  0  0  0  0  0  0  0
  -17.8930   -5.0660    7.4340 C   0  0  0  0  0  0  0  0  0  0  0  0
  -10.6860    3.8640    1.1510 N   0  0  0  0  0  0  0  0  0  0  0  0
   -9.8320    4.1910    2.2000 C   0  0  0  0  0  0  0  0  0  0  0  0
   -8.5020    4.1610    2.1040 C   0  0  0  0  0  0  0  0  0  0  0  0
   -7.8920    3.7580    0.8350 C   0  0  0  0  0  0  0  0  0  0  0  0
   -6.6790    3.7860    0.6760 O   0  0  0  0  0  0  0  0  0  0  0  0
   -8.7660    3.3600   -0.1290 N   0  0  0  0  0  0  0  0  0  0  0  0
  -10.1380    3.4570   -0.0860 C   0  0  0  0  0  0  0  0  0  0  0  0
  -10.7560    3.2210   -1.1230 O   0  0  0  0  0  0  0  0  0  0  0  0
  -15.4832    6.9964    2.3293 H   0  0  0  0  0  0  0  0  0  0  0  0
  -15.4865    8.3513    1.1500 H   0  0  0  0  0  0  0  0  0  0  0  0
  -16.8286    7.1573    1.1500 H   0  0  0  0  0  0  0  0  0  0  0  0
  -13.3802    7.9037    0.3809 H   0  0  0  0  0  0  0  0  0  0  0  0
  -13.2646    6.7803   -1.0160 H   0  0  0  0  0  0  0  0  0  0  0  0
  -14.4941    8.0900   -1.0160 H   0  0  0  0  0  0  0  0  0  0  0  0
  -16.8775    5.5155   -0.2147 H   0  0  0  0  0  0  0  0  0  0  0  0
  -16.3180    6.7714   -1.3707 H   0  0  0  0  0  0  0  0  0  0  0  0
  -15.5532    5.1461   -1.3707 H   0  0  0  0  0  0  0  0  0  0  0  0
  -12.2818    5.8270    0.2538 H   0  0  0  0  0  0  0  0  0  0  0  0
  -12.3235    2.0842    2.3686 H   0  0  0  0  0  0  0  0  0  0  0  0
  -16.2751    4.3741    3.9637 H   0  0  0  0  0  0  0  0  0  0  0  0
  -16.0335    5.9708    3.1771 H   0  0  0  0  0  0  0  0  0  0  0  0
  -17.6590    5.2064    3.1771 H   0  0  0  0  0  0  0  0  0  0  0  0
  -13.4987    0.4474    2.2048 H   0  0  0  0  0  0  0  0  0  0  0  0
  -17.7345    1.2750    4.7036 H   0  0  0  0  0  0  0  0  0  0  0  0
  -16.5604    3.1605    3.5897 H   0  0  0  0  0  0  0  0  0  0  0  0
  -17.8645   -1.1149    5.2789 H   0  0  0  0  0  0  0  0  0  0  0  0
  -14.8035   -3.8286    3.8920 H   0  0  0  0  0  0  0  0  0  0  0  0
  -13.6313   -1.9378    2.7679 H   0  0  0  0  0  0  0  0  0  0  0  0
  -17.7548   -4.2498    4.8314 H   0  0  0  0  0  0  0  0  0  0  0  0
  -17.9357   -5.1059    8.5324 H   0  0  0  0  0  0  0  0  0  0  0  0
  -18.8703   -4.7499    7.0403 H   0  0  0  0  0  0  0  0  0  0  0  0
  -17.6440   -6.0625    7.0403 H   0  0  0  0  0  0  0  0  0  0  0  0
  -10.2778    4.4903    3.1600 H   0  0  0  0  0  0  0  0  0  0  0  0
   -7.8733    4.4346    2.9642 H   0  0  0  0  0  0  0  0  0  0  0  0
   -8.3587    2.9432   -0.9783 H   0  0  0  0  0  0  0  0  0  0  0  0
  1  2  1  0
  2  3  1  0
  2  4  1  0
  2  5  1  0
  5  6  2  0
  6  7  1  0
  7  8  2  0
  8  9  1  0
  9 10  2  0
 10 11  1  0
 11 12  1  0
  9 13  1  0
 13 14  2  0
 14 15  1  0
 15 16  2  0
 16 17  1  0
 17 18  2  0
 16 19  1  0
 19 20  2  0
 20 21  1  0
 21 22  2  0
 20 23  1  0
 23 24  1  0
 24 25  2  0
 24 26  2  0
 24 27  1  0
  7 28  1  0
 28 29  1  0
 29 30  2  0
 30 31  1  0
 31 32  2  0
 31 33  1  0
 33 34  1  0
 34 35  2  0
 10  5  1  0
 18 13  1  0
 22 15  1  0
 34 28  1  0
  1 36  1  0
  1 37  1  0
  1 38  1  0
  3 39  1  0
  3 40  1  0
  3 41  1  0
  4 42  1  0
  4 43  1  0
  4 44  1  0
  6 45  1  0
  8 46  1  0
 12 47  1  0
 12 48  1  0
 12 49  1  0
 14 50  1  0
 17 51  1  0
 18 52  1  0
 19 53  1  0
 21 54  1  0
 22 55  1  0
 23 56  1  0
 27 57  1  0
 27 58  1  0
 27 59  1  0
 29 60  1  0
 30 61  1  0
 33 62  1  0
M  END
