
     RDKit          3D

 60 61  0  0  0  0  0  0  0  0999 V2000
  -12.5600    1.0890   -2.6830 C   0  0  0  0  0  0  0  0  0  0  0  0
  -11.1540    0.5070   -2.6960 C   0  0  0  0  0  0  0  0  0  0  0  0
  -10.3050    1.6390   -2.1110 C   0  0  2  0  0  0  0  0  0  0  0  0
  -11.2190    2.3220   -1.1890 N   0  0  0  0  0  0  0  0  0  0  0  0
  -12.5900    1.8740   -1.3800 C   0  0  0  0  0  0  0  0  0  0  0  0
  -10.7090    3.0870   -0.1620 C   0  0  0  0  0  0  0  0  0  0  0  0
   -9.4870    3.2680   -0.0810 O   0  0  0  0  0  0  0  0  0  0  0  0
  -11.6210    3.6460    0.9610 C   0  0  2  0  0  0  0  0  0  0  0  0
  -10.7620    4.5770    1.8460 C   0  0  0  0  0  0  0  0  0  0  0  0
  -10.2390    3.8910    3.1150 C   0  0  0  0  0  0  0  0  0  0  0  0
   -8.8330    4.3870    3.4710 C   0  0  0  0  0  0  0  0  0  0  0  0
   -7.7150    3.5140    2.8980 C   0  0  0  0  0  0  0  0  0  0  0  0
   -7.2040    4.0020    1.6230 N   0  0  0  0  0  0  0  0  0  0  0  0
  -12.3090    2.6290    1.7950 N   0  0  0  0  0  0  0  0  0  0  0  0
  -13.7230    2.9280    2.1750 C   0  0  1  0  0  0  0  0  0  0  0  0
  -14.5140    3.6490    1.0660 C   0  0  0  0  0  0  0  0  0  0  0  0
  -15.3220    4.8550    1.5700 C   0  0  0  0  0  0  0  0  0  0  0  0
  -15.1050    6.1340    0.8030 C   0  0  0  0  0  0  0  0  0  0  0  0
  -16.1120    7.1060    0.7400 C   0  0  0  0  0  0  0  0  0  0  0  0
  -15.9120    8.2850    0.0200 C   0  0  0  0  0  0  0  0  0  0  0  0
  -14.7040    8.5070   -0.6370 C   0  0  0  0  0  0  0  0  0  0  0  0
  -13.6950    7.5490   -0.5760 C   0  0  0  0  0  0  0  0  0  0  0  0
  -13.8930    6.3690    0.1410 C   0  0  0  0  0  0  0  0  0  0  0  0
  -14.4040    1.6800    2.7420 C   0  0  0  0  0  0  0  0  0  0  0  0
  -15.4650    1.6660    3.3490 O   0  0  0  0  0  0  0  0  0  0  0  0
  -13.6390    0.5750    2.6530 O   0  0  0  0  0  0  0  0  0  0  0  0
   -9.7110    2.4850   -3.2450 C   0  0  0  0  0  0  0  0  0  0  0  0
   -9.2460    2.0340   -4.2850 O   0  0  0  0  0  0  0  0  0  0  0  0
   -9.7280    3.8260   -3.0730 O   0  0  0  0  0  0  0  0  0  0  0  0
  -12.7229    1.7498   -3.5471 H   0  0  0  0  0  0  0  0  0  0  0  0
  -13.3478    0.3240   -2.7479 H   0  0  0  0  0  0  0  0  0  0  0  0
  -11.0943   -0.3956   -2.0700 H   0  0  0  0  0  0  0  0  0  0  0  0
  -10.8251    0.1926   -3.6975 H   0  0  0  0  0  0  0  0  0  0  0  0
   -9.4103    1.3248   -1.5535 H   0  0  0  0  0  0  0  0  0  0  0  0
  -12.9078    1.2306   -0.5464 H   0  0  0  0  0  0  0  0  0  0  0  0
  -13.3015    2.7122   -1.4146 H   0  0  0  0  0  0  0  0  0  0  0  0
  -12.4436    4.1817    0.4647 H   0  0  0  0  0  0  0  0  0  0  0  0
   -9.9010    4.9239    1.2559 H   0  0  0  0  0  0  0  0  0  0  0  0
  -11.4058    5.4096    2.1660 H   0  0  0  0  0  0  0  0  0  0  0  0
  -10.9202    4.1125    3.9498 H   0  0  0  0  0  0  0  0  0  0  0  0
  -10.1913    2.8074    2.9320 H   0  0  0  0  0  0  0  0  0  0  0  0
   -8.7139    5.4076    3.0782 H   0  0  0  0  0  0  0  0  0  0  0  0
   -8.7441    4.3489    4.5667 H   0  0  0  0  0  0  0  0  0  0  0  0
   -6.8860    3.4883    3.6205 H   0  0  0  0  0  0  0  0  0  0  0  0
   -8.1382    2.5143    2.7204 H   0  0  0  0  0  0  0  0  0  0  0  0
   -6.4694    4.7036    1.7934 H   0  0  0  0  0  0  0  0  0  0  0  0
   -6.8100    3.2154    1.0873 H   0  0  0  0  0  0  0  0  0  0  0  0
  -12.3058    1.7412    1.2728 H   0  0  0  0  0  0  0  0  0  0  0  0
  -13.7069    3.6672    2.9895 H   0  0  0  0  0  0  0  0  0  0  0  0
  -13.8026    4.0010    0.3044 H   0  0  0  0  0  0  0  0  0  0  0  0
  -15.2357    2.9240    0.6617 H   0  0  0  0  0  0  0  0  0  0  0  0
  -16.3901    4.5987    1.5105 H   0  0  0  0  0  0  0  0  0  0  0  0
  -14.9753    5.0497    2.5956 H   0  0  0  0  0  0  0  0  0  0  0  0
  -17.0662    6.9390    1.2612 H   0  0  0  0  0  0  0  0  0  0  0  0
  -16.7101    9.0404   -0.0287 H   0  0  0  0  0  0  0  0  0  0  0  0
  -14.5473    9.4372   -1.2029 H   0  0  0  0  0  0  0  0  0  0  0  0
  -12.7404    7.7232   -1.0941 H   0  0  0  0  0  0  0  0  0  0  0  0
  -13.0913    5.6172    0.1870 H   0  0  0  0  0  0  0  0  0  0  0  0
  -13.9798   -0.2914    2.9896 H   0  0  0  0  0  0  0  0  0  0  0  0
   -9.3576    4.4196   -3.7734 H   0  0  0  0  0  0  0  0  0  0  0  0
  1  2  1  0
  2  3  1  0
  3  4  1  0
  4  5  1  0
  4  6  1  0
  6  7  2  0
  6  8  1  0
  8  9  1  0
  9 10  1  0
 10 11  1  0
 11 12  1  0
 12 13  1  0
  8 14  1  0
 14 15  1  0
 15 16  1  0
 16 17  1  0
 17 18  1  0
 18 19  2  0
 19 20  1  0
 20 21  2  0
 21 22  1  0
 22 23  2  0
 15 24  1  0
 24 25  2  0
 24 26  1  0
  3 27  1  0
 27 28  2  0
 27 29  1  0
  5  1  1  0
 23 18  1  0
  1 30  1  0
  1 31  1  0
  2 32  1  0
  2 33  1  0
  3 34  1  1
  5 35  1  0
  5 36  1  0
  8 37  1  6
  9 38  1  0
  9 39  1  0
 10 40  1  0
 10 41  1  0
 11 42  1  0
 11 43  1  0
 12 44  1  0
 12 45  1  0
 13 46  1  0
 13 47  1  0
 14 48  1  0
 15 49  1  1
 16 50  1  0
 16 51  1  0
 17 52  1  0
 17 53  1  0
 19 54  1  0
 20 55  1  0
 21 56  1  0
 22 57  1  0
 23 58  1  0
 26 59  1  0
 29 60  1  0
M  END
