
     RDKit          3D

 26 28  0  0  0  0  0  0  0  0999 V2000
  -10.4730    4.3040    2.2130 C   0  0  0  0  0  0  0  0  0  0  0  0
  -10.6580    3.6370    0.9450 N   0  0  0  0  0  0  0  0  0  0  0  0
   -9.6630    3.4590    0.0190 C   0  0  0  0  0  0  0  0  0  0  0  0
  -10.0990    2.8510   -1.0600 N   0  0  0  0  0  0  0  0  0  0  0  0
  -11.4410    2.6190   -0.8190 C   0  0  0  0  0  0  0  0  0  0  0  0
  -11.8090    3.0850    0.4290 C   0  0  0  0  0  0  0  0  0  0  0  0
  -13.3210    3.1250    1.2820 S   0  0  0  0  0  0  0  0  0  0  0  0
  -13.8380    4.7500    0.8260 C   0  0  0  0  0  0  0  0  0  0  0  0
  -13.0610    5.4950    0.0130 N   0  0  0  0  0  0  0  0  0  0  0  0
  -13.5130    6.7130   -0.3480 C   0  0  0  0  0  0  0  0  0  0  0  0
  -14.6560    7.3080    0.0100 N   0  0  0  0  0  0  0  0  0  0  0  0
  -15.4080    6.5500    0.8260 C   0  0  0  0  0  0  0  0  0  0  0  0
  -15.0350    5.2880    1.2480 C   0  0  0  0  0  0  0  0  0  0  0  0
  -16.0570    4.8780    2.0600 N   0  0  0  0  0  0  0  0  0  0  0  0
  -16.9820    5.8840    2.0960 C   0  0  0  0  0  0  0  0  0  0  0  0
  -16.6190    6.9070    1.3530 N   0  0  0  0  0  0  0  0  0  0  0  0
  -12.2500    1.9570   -1.8190 N   0  0  0  0  0  0  0  0  0  0  0  0
  -12.8370    2.6760   -2.6450 O   0  0  0  0  0  0  0  0  0  0  0  0
  -12.3110    0.7220   -1.7850 O   0  0  0  0  0  0  0  0  0  0  0  0
  -10.6693    3.5961    3.0317 H   0  0  0  0  0  0  0  0  0  0  0  0
   -9.4389    4.6718    2.2864 H   0  0  0  0  0  0  0  0  0  0  0  0
  -11.1699    5.1519    2.2864 H   0  0  0  0  0  0  0  0  0  0  0  0
   -8.6228    3.7866    0.1628 H   0  0  0  0  0  0  0  0  0  0  0  0
  -12.8604    7.2889   -1.0207 H   0  0  0  0  0  0  0  0  0  0  0  0
  -16.1183    3.9762    2.5539 H   0  0  0  0  0  0  0  0  0  0  0  0
  -17.9160    5.8430    2.6756 H   0  0  0  0  0  0  0  0  0  0  0  0
  1  2  1  0
  2  3  1  0
  3  4  2  0
  4  5  1  0
  5  6  2  0
  6  7  1  0
  7  8  1  0
  8  9  2  0
  9 10  1  0
 10 11  2  0
 11 12  1  0
 12 13  2  0
 13 14  1  0
 14 15  1  0
 15 16  2  0
  5 17  1  0
 17 18  2  0
 17 19  1  0
  6  2  1  0
 13  8  1  0
 16 12  1  0
  1 20  1  0
  1 21  1  0
  1 22  1  0
  3 23  1  0
 10 24  1  0
 14 25  1  0
 15 26  1  0
M  CHG  2  17   1  19  -1
M  END
