
     RDKit          3D

 42 45  0  0  0  0  0  0  0  0999 V2000
  -17.3690    4.0410    2.6420 C   0  0  0  0  0  0  0  0  0  0  0  0
  -16.4290    5.2350    2.9090 C   0  0  2  0  0  0  0  0  0  0  0  0
  -17.2120    6.5190    2.6000 C   0  0  0  0  0  0  0  0  0  0  0  0
  -17.2540    6.8170    1.1060 C   0  0  0  0  0  0  0  0  0  0  0  0
  -15.8140    6.9720    0.6530 C   0  0  2  0  0  0  0  0  0  0  0  0
  -15.6230    7.7750   -0.6400 C   0  0  1  0  0  0  0  0  0  0  0  0
  -14.1450    8.1570   -0.7240 C   0  0  0  0  0  0  0  0  0  0  0  0
  -13.7450    9.1350   -1.3410 O   0  0  0  0  0  0  0  0  0  0  0  0
  -13.3050    7.3540   -0.0030 O   0  0  0  0  0  0  0  0  0  0  0  0
  -13.6920    5.9840   -0.0570 C   0  0  2  0  0  0  0  0  0  0  0  0
  -14.9950    5.6540    0.7130 C   0  0  1  0  0  0  0  0  0  0  0  0
  -14.9910    5.1580    2.2120 C   0  0  2  0  0  0  0  0  0  0  0  0
  -14.4760    3.7120    2.4340 C   0  0  0  0  0  0  0  0  0  0  0  0
  -13.2140    3.2900    1.7150 C   0  0  0  0  0  0  0  0  0  0  0  0
  -13.1760    3.7770    0.2730 C   0  0  2  0  0  0  0  0  0  0  0  0
  -12.6620    5.1120    0.3240 O   0  0  0  0  0  0  0  0  0  0  0  0
  -14.4410    3.5990   -0.4290 O   0  0  0  0  0  0  0  0  0  0  0  0
  -15.5420    4.5430   -0.0100 O   0  0  0  0  0  0  0  0  0  0  0  0
  -12.1440    2.9670   -0.5140 C   0  0  0  0  0  0  0  0  0  0  0  0
  -16.1530    7.1360   -1.9140 C   0  0  0  0  0  0  0  0  0  0  0  0
  -17.7034    3.6162    3.6000 H   0  0  0  0  0  0  0  0  0  0  0  0
  -18.2426    4.3833    2.0678 H   0  0  0  0  0  0  0  0  0  0  0  0
  -16.8312    3.2722    2.0678 H   0  0  0  0  0  0  0  0  0  0  0  0
  -16.1402    5.2163    3.9702 H   0  0  0  0  0  0  0  0  0  0  0  0
  -18.2421    6.4040    2.9682 H   0  0  0  0  0  0  0  0  0  0  0  0
  -16.7020    7.3562    3.0991 H   0  0  0  0  0  0  0  0  0  0  0  0
  -17.7340    5.9869    0.5670 H   0  0  0  0  0  0  0  0  0  0  0  0
  -17.8345    7.7284    0.8999 H   0  0  0  0  0  0  0  0  0  0  0  0
  -15.3638    7.6198    1.4196 H   0  0  0  0  0  0  0  0  0  0  0  0
  -16.2596    8.6698   -0.5757 H   0  0  0  0  0  0  0  0  0  0  0  0
  -13.9099    5.8166   -1.1221 H   0  0  0  0  0  0  0  0  0  0  0  0
  -14.2848    5.8651    2.6717 H   0  0  0  0  0  0  0  0  0  0  0  0
  -14.2942    3.5913    3.5121 H   0  0  0  0  0  0  0  0  0  0  0  0
  -15.2624    3.0716    2.0080 H   0  0  0  0  0  0  0  0  0  0  0  0
  -12.3471    3.7044    2.2506 H   0  0  0  0  0  0  0  0  0  0  0  0
  -13.1899    2.1904    1.6980 H   0  0  0  0  0  0  0  0  0  0  0  0
  -11.4770    2.4435    0.1867 H   0  0  0  0  0  0  0  0  0  0  0  0
  -12.6610    2.2310   -1.1473 H   0  0  0  0  0  0  0  0  0  0  0  0
  -11.5520    3.6441   -1.1473 H   0  0  0  0  0  0  0  0  0  0  0  0
  -16.8355    6.3131   -1.6550 H   0  0  0  0  0  0  0  0  0  0  0  0
  -16.6947    7.8897   -2.5043 H   0  0  0  0  0  0  0  0  0  0  0  0
  -15.3121    6.7429   -2.5043 H   0  0  0  0  0  0  0  0  0  0  0  0
  1  2  1  0
  2  3  1  0
  3  4  1  0
  4  5  1  0
  5  6  1  0
  6  7  1  0
  7  8  2  0
  7  9  1  0
  9 10  1  0
 10 11  1  0
 11 12  1  0
 12 13  1  0
 13 14  1  0
 14 15  1  0
 15 16  1  0
 15 17  1  0
 17 18  1  0
 15 19  1  6
  6 20  1  0
 12  2  1  0
 11  5  1  0
 16 10  1  0
 11 18  1  6
  1 21  1  0
  1 22  1  0
  1 23  1  0
  2 24  1  1
  3 25  1  0
  3 26  1  0
  4 27  1  0
  4 28  1  0
  5 29  1  6
  6 30  1  6
 10 31  1  1
 12 32  1  6
 13 33  1  0
 13 34  1  0
 14 35  1  0
 14 36  1  0
 19 37  1  0
 19 38  1  0
 19 39  1  0
 20 40  1  0
 20 41  1  0
 20 42  1  0
M  END
