
     RDKit          3D

 52 54  0  0  0  0  0  0  0  0999 V2000
  -10.5830   -3.0260   -3.1910 C   0  0  0  0  0  0  0  0  0  0  0  0
  -11.8330   -2.4090   -2.9120 O   0  0  0  0  0  0  0  0  0  0  0  0
  -11.7260   -1.0000   -2.7160 C   0  0  0  0  0  0  0  0  0  0  0  0
  -11.2350   -0.2850   -3.9740 C   0  0  0  0  0  0  0  0  0  0  0  0
  -11.5860    1.0920   -3.8780 O   0  0  0  0  0  0  0  0  0  0  0  0
  -11.1320    1.7950   -2.7910 C   0  0  0  0  0  0  0  0  0  0  0  0
   -9.7540    2.0580   -2.7550 C   0  0  0  0  0  0  0  0  0  0  0  0
   -9.2210    2.7680   -1.6760 C   0  0  0  0  0  0  0  0  0  0  0  0
  -10.0110    3.2150   -0.6250 C   0  0  0  0  0  0  0  0  0  0  0  0
  -11.3830    2.9380   -0.6390 C   0  0  0  0  0  0  0  0  0  0  0  0
  -11.9370    2.2310   -1.7380 C   0  0  0  0  0  0  0  0  0  0  0  0
  -12.1120    3.4130    0.4700 C   0  0  0  0  0  0  0  0  0  0  0  0
  -11.5260    4.1090    1.4600 N   0  0  0  0  0  0  0  0  0  0  0  0
  -10.2110    4.3160    1.3560 C   0  0  0  0  0  0  0  0  0  0  0  0
   -9.4220    3.8930    0.3640 N   0  0  0  0  0  0  0  0  0  0  0  0
  -13.5020    3.1240    0.5510 N   0  0  0  0  0  0  0  0  0  0  0  0
  -14.4720    3.7130    1.3970 C   0  0  0  0  0  0  0  0  0  0  0  0
  -14.8200    3.0580    2.5880 C   0  0  0  0  0  0  0  0  0  0  0  0
  -15.8190    3.5640    3.4260 C   0  0  0  0  0  0  0  0  0  0  0  0
  -16.5050    4.7230    3.0680 C   0  0  0  0  0  0  0  0  0  0  0  0
  -16.1990    5.3660    1.8690 C   0  0  0  0  0  0  0  0  0  0  0  0
  -15.1980    4.8550    1.0350 C   0  0  0  0  0  0  0  0  0  0  0  0
  -16.9180    6.5430    1.4870 C   0  0  0  0  0  0  0  0  0  0  0  0
  -17.5210    7.5310    1.1660 C   0  0  0  0  0  0  0  0  0  0  0  0
   -9.0310    1.5950   -3.8250 O   0  0  0  0  0  0  0  0  0  0  0  0
   -8.9610    2.3660   -5.0270 C   0  0  0  0  0  0  0  0  0  0  0  0
   -7.7430    2.0010   -5.8830 C   0  0  0  0  0  0  0  0  0  0  0  0
   -8.0870    1.6070   -7.2180 O   0  0  0  0  0  0  0  0  0  0  0  0
   -9.4110    1.9640   -7.5900 C   0  0  0  0  0  0  0  0  0  0  0  0
  -10.0781   -3.2752   -2.2460 H   0  0  0  0  0  0  0  0  0  0  0  0
  -10.7494   -3.9455   -3.7714 H   0  0  0  0  0  0  0  0  0  0  0  0
   -9.9543   -2.3347   -3.7714 H   0  0  0  0  0  0  0  0  0  0  0  0
  -12.7151   -0.6027   -2.4444 H   0  0  0  0  0  0  0  0  0  0  0  0
  -10.9933   -0.8221   -1.9150 H   0  0  0  0  0  0  0  0  0  0  0  0
  -10.1425   -0.3846   -4.0547 H   0  0  0  0  0  0  0  0  0  0  0  0
  -11.6993   -0.7307   -4.8660 H   0  0  0  0  0  0  0  0  0  0  0  0
   -8.1417    2.9795   -1.6585 H   0  0  0  0  0  0  0  0  0  0  0  0
  -13.0171    2.0237   -1.7599 H   0  0  0  0  0  0  0  0  0  0  0  0
   -9.7318    4.8890    2.1635 H   0  0  0  0  0  0  0  0  0  0  0  0
  -13.8469    2.3929   -0.0873 H   0  0  0  0  0  0  0  0  0  0  0  0
  -14.2983    2.1308    2.8674 H   0  0  0  0  0  0  0  0  0  0  0  0
  -16.0628    3.0478    4.3663 H   0  0  0  0  0  0  0  0  0  0  0  0
  -17.2850    5.1292    3.7288 H   0  0  0  0  0  0  0  0  0  0  0  0
  -14.9782    5.3574    0.0814 H   0  0  0  0  0  0  0  0  0  0  0  0
  -18.0732    8.4358    0.8720 H   0  0  0  0  0  0  0  0  0  0  0  0
   -9.8731    2.1872   -5.6154 H   0  0  0  0  0  0  0  0  0  0  0  0
   -8.8670    3.4244   -4.7425 H   0  0  0  0  0  0  0  0  0  0  0  0
   -7.0791    2.8764   -5.9372 H   0  0  0  0  0  0  0  0  0  0  0  0
   -7.2540    1.1397   -5.4043 H   0  0  0  0  0  0  0  0  0  0  0  0
  -10.0148    2.1268   -6.6851 H   0  0  0  0  0  0  0  0  0  0  0  0
   -9.3878    2.8880   -8.1865 H   0  0  0  0  0  0  0  0  0  0  0  0
   -9.8554    1.1536   -8.1865 H   0  0  0  0  0  0  0  0  0  0  0  0
  1  2  1  0
  2  3  1  0
  3  4  1  0
  4  5  1  0
  5  6  1  0
  6  7  2  0
  7  8  1  0
  8  9  2  0
  9 10  1  0
 10 11  2  0
 10 12  1  0
 12 13  2  0
 13 14  1  0
 14 15  2  0
 12 16  1  0
 16 17  1  0
 17 18  2  0
 18 19  1  0
 19 20  2  0
 20 21  1  0
 21 22  2  0
 21 23  1  0
 23 24  3  0
  7 25  1  0
 25 26  1  0
 26 27  1  0
 27 28  1  0
 28 29  1  0
 11  6  1  0
 15  9  1  0
 22 17  1  0
  1 30  1  0
  1 31  1  0
  1 32  1  0
  3 33  1  0
  3 34  1  0
  4 35  1  0
  4 36  1  0
  8 37  1  0
 11 38  1  0
 14 39  1  0
 16 40  1  0
 18 41  1  0
 19 42  1  0
 20 43  1  0
 22 44  1  0
 24 45  1  0
 26 46  1  0
 26 47  1  0
 27 48  1  0
 27 49  1  0
 29 50  1  0
 29 51  1  0
 29 52  1  0
M  END
