
     RDKit          3D

 46 47  0  0  0  0  0  0  0  0999 V2000
  -16.0310    6.8830   -0.4840 C   0  0  0  0  0  0  0  0  0  0  0  0
  -15.3850    6.2610    0.7480 C   0  0  0  0  0  0  0  0  0  0  0  0
  -16.4270    5.9920    1.8270 C   0  0  0  0  0  0  0  0  0  0  0  0
  -14.7930    5.0160    0.3310 O   0  0  0  0  0  0  0  0  0  0  0  0
  -13.4290    4.9290    0.4250 C   0  0  0  0  0  0  0  0  0  0  0  0
  -12.6640    5.7860   -0.0020 O   0  0  0  0  0  0  0  0  0  0  0  0
  -13.0110    3.6150    1.1370 C   0  0  0  0  0  0  0  0  0  0  0  0
  -11.6020    3.8410    1.6980 C   0  0  0  0  0  0  0  0  0  0  0  0
  -13.1040    2.4940    0.0950 C   0  0  0  0  0  0  0  0  0  0  0  0
  -13.9880    3.4680    2.1810 O   0  0  0  0  0  0  0  0  0  0  0  0
  -14.5070    2.2970    2.6300 C   0  0  0  0  0  0  0  0  0  0  0  0
  -15.7810    2.4340    3.1950 C   0  0  0  0  0  0  0  0  0  0  0  0
  -16.4660    1.3330    3.7110 C   0  0  0  0  0  0  0  0  0  0  0  0
  -15.8710    0.0720    3.6840 C   0  0  0  0  0  0  0  0  0  0  0  0
  -14.6070   -0.0810    3.1040 C   0  0  0  0  0  0  0  0  0  0  0  0
  -13.9280    1.0320    2.5850 C   0  0  0  0  0  0  0  0  0  0  0  0
  -16.6240   -1.0840    4.2300 C   0  0  0  0  0  0  0  0  0  0  0  0
  -16.2320   -2.2230    3.9940 O   0  0  0  0  0  0  0  0  0  0  0  0
  -17.8420   -0.8970    5.0580 C   0  0  0  0  0  0  0  0  0  0  0  0
  -17.7740   -0.4060    6.3690 C   0  0  0  0  0  0  0  0  0  0  0  0
  -18.9460   -0.2300    7.1100 C   0  0  0  0  0  0  0  0  0  0  0  0
  -20.1830   -0.5320    6.5370 C   0  0  0  0  0  0  0  0  0  0  0  0
  -20.2590   -1.0010    5.2280 C   0  0  0  0  0  0  0  0  0  0  0  0
  -19.0890   -1.1790    4.4850 C   0  0  0  0  0  0  0  0  0  0  0  0
  -21.6220   -0.3160    7.4540 Cl  0  0  0  0  0  0  0  0  0  0  0  0
  -16.7905    7.6142   -0.1701 H   0  0  0  0  0  0  0  0  0  0  0  0
  -15.2615    7.3889   -1.0856 H   0  0  0  0  0  0  0  0  0  0  0  0
  -16.5074    6.0949   -1.0856 H   0  0  0  0  0  0  0  0  0  0  0  0
  -14.6328    6.9442    1.1691 H   0  0  0  0  0  0  0  0  0  0  0  0
  -15.9667    6.1108    2.8190 H   0  0  0  0  0  0  0  0  0  0  0  0
  -17.2577    6.7051    1.7204 H   0  0  0  0  0  0  0  0  0  0  0  0
  -16.8087    4.9659    1.7204 H   0  0  0  0  0  0  0  0  0  0  0  0
  -11.6397    3.8349    2.7973 H   0  0  0  0  0  0  0  0  0  0  0  0
  -10.9355    3.0383    1.3496 H   0  0  0  0  0  0  0  0  0  0  0  0
  -11.2200    4.8119    1.3496 H   0  0  0  0  0  0  0  0  0  0  0  0
  -13.1845    1.5236    0.6066 H   0  0  0  0  0  0  0  0  0  0  0  0
  -13.9922    2.6514   -0.5346 H   0  0  0  0  0  0  0  0  0  0  0  0
  -12.2020    2.5029   -0.5346 H   0  0  0  0  0  0  0  0  0  0  0  0
  -16.2506    3.4280    3.2328 H   0  0  0  0  0  0  0  0  0  0  0  0
  -17.4720    1.4594    4.1376 H   0  0  0  0  0  0  0  0  0  0  0  0
  -14.1437   -1.0775    3.0546 H   0  0  0  0  0  0  0  0  0  0  0  0
  -12.9306    0.9038    2.1392 H   0  0  0  0  0  0  0  0  0  0  0  0
  -16.7989   -0.1593    6.8144 H   0  0  0  0  0  0  0  0  0  0  0  0
  -18.8940    0.1457    8.1425 H   0  0  0  0  0  0  0  0  0  0  0  0
  -21.2371   -1.2307    4.7802 H   0  0  0  0  0  0  0  0  0  0  0  0
  -19.1472   -1.5413    3.4480 H   0  0  0  0  0  0  0  0  0  0  0  0
  1  2  1  0
  2  3  1  0
  2  4  1  0
  4  5  1  0
  5  6  2  0
  5  7  1  0
  7  8  1  0
  7  9  1  0
  7 10  1  0
 10 11  1  0
 11 12  2  0
 12 13  1  0
 13 14  2  0
 14 15  1  0
 15 16  2  0
 14 17  1  0
 17 18  2  0
 17 19  1  0
 19 20  2  0
 20 21  1  0
 21 22  2  0
 22 23  1  0
 23 24  2  0
 22 25  1  0
 16 11  1  0
 24 19  1  0
  1 26  1  0
  1 27  1  0
  1 28  1  0
  2 29  1  0
  3 30  1  0
  3 31  1  0
  3 32  1  0
  8 33  1  0
  8 34  1  0
  8 35  1  0
  9 36  1  0
  9 37  1  0
  9 38  1  0
 12 39  1  0
 13 40  1  0
 15 41  1  0
 16 42  1  0
 20 43  1  0
 21 44  1  0
 23 45  1  0
 24 46  1  0
M  END
