
     RDKit          3D

 52 54  0  0  0  0  0  0  0  0999 V2000
   -9.7270    2.6140   -3.2100 C   0  0  0  0  0  0  0  0  0  0  0  0
   -9.8540    2.2970   -1.7020 C   0  0  0  0  0  0  0  0  0  0  0  0
  -11.1420    2.6830   -1.1050 N   0  0  0  0  0  0  0  0  0  0  0  0
  -12.2120    2.7800   -2.1150 C   0  0  0  0  0  0  0  0  0  0  0  0
  -12.0190    1.7690   -3.2670 C   0  0  0  0  0  0  0  0  0  0  0  0
  -10.7930    2.0270   -4.0490 N   0  0  0  0  0  0  0  0  0  0  0  0
  -10.3340    0.8340   -4.7770 C   0  0  0  0  0  0  0  0  0  0  0  0
  -10.7560    0.7560   -6.2630 C   0  0  0  0  0  0  0  0  0  0  0  0
   -9.7370    1.1030   -7.2010 O   0  0  0  0  0  0  0  0  0  0  0  0
   -9.3070    2.4540   -7.1150 C   0  0  0  0  0  0  0  0  0  0  0  0
  -10.2020    3.3920   -7.9120 C   0  0  0  0  0  0  0  0  0  0  0  0
   -9.9830    3.9140   -8.9920 O   0  0  0  0  0  0  0  0  0  0  0  0
  -11.3680    3.6410   -7.2720 O   0  0  0  0  0  0  0  0  0  0  0  0
  -11.1260    3.8220   -0.1560 C   0  0  0  0  0  0  0  0  0  0  0  0
   -9.9240    3.8300    0.8040 C   0  0  0  0  0  0  0  0  0  0  0  0
  -10.1390    3.8350    2.1940 C   0  0  0  0  0  0  0  0  0  0  0  0
   -9.0670    3.8460    3.0880 C   0  0  0  0  0  0  0  0  0  0  0  0
   -7.7600    3.8450    2.6100 C   0  0  0  0  0  0  0  0  0  0  0  0
   -7.5230    3.8300    1.2380 C   0  0  0  0  0  0  0  0  0  0  0  0
   -8.5940    3.8220    0.3430 C   0  0  0  0  0  0  0  0  0  0  0  0
  -12.4870    4.0760    0.5320 C   0  0  0  0  0  0  0  0  0  0  0  0
  -13.0570    3.1590    1.4330 C   0  0  0  0  0  0  0  0  0  0  0  0
  -14.3080    3.3970    2.0130 C   0  0  0  0  0  0  0  0  0  0  0  0
  -15.0180    4.5460    1.6830 C   0  0  0  0  0  0  0  0  0  0  0  0
  -14.4950    5.4550    0.7710 C   0  0  0  0  0  0  0  0  0  0  0  0
  -13.2440    5.2160    0.1930 C   0  0  0  0  0  0  0  0  0  0  0  0
  -16.5570    4.8370    2.3960 Cl  0  0  0  0  0  0  0  0  0  0  0  0
   -9.7529    3.7065   -3.3353 H   0  0  0  0  0  0  0  0  0  0  0  0
   -8.7802    2.1662   -3.5464 H   0  0  0  0  0  0  0  0  0  0  0  0
   -9.7232    1.2133   -1.5663 H   0  0  0  0  0  0  0  0  0  0  0  0
   -9.0814    2.8902   -1.1909 H   0  0  0  0  0  0  0  0  0  0  0  0
  -13.1782    2.5821   -1.6279 H   0  0  0  0  0  0  0  0  0  0  0  0
  -12.1807    3.7922   -2.5446 H   0  0  0  0  0  0  0  0  0  0  0  0
  -11.9587    0.7566   -2.8410 H   0  0  0  0  0  0  0  0  0  0  0  0
  -12.8767    1.8719   -3.9481 H   0  0  0  0  0  0  0  0  0  0  0  0
   -9.2350    0.8139   -4.7355 H   0  0  0  0  0  0  0  0  0  0  0  0
  -10.8127   -0.0239   -4.2822 H   0  0  0  0  0  0  0  0  0  0  0  0
  -11.0754   -0.2755   -6.4728 H   0  0  0  0  0  0  0  0  0  0  0  0
  -11.5577    1.4979   -6.3931 H   0  0  0  0  0  0  0  0  0  0  0  0
   -9.3195    2.7636   -6.0595 H   0  0  0  0  0  0  0  0  0  0  0  0
   -8.2929    2.5140   -7.5368 H   0  0  0  0  0  0  0  0  0  0  0  0
  -12.0413    4.2382   -7.6844 H   0  0  0  0  0  0  0  0  0  0  0  0
  -10.9639    4.7064   -0.7897 H   0  0  0  0  0  0  0  0  0  0  0  0
  -11.1680    3.8302    2.5827 H   0  0  0  0  0  0  0  0  0  0  0  0
   -9.2556    3.8555    4.1717 H   0  0  0  0  0  0  0  0  0  0  0  0
   -6.9156    3.8560    3.3149 H   0  0  0  0  0  0  0  0  0  0  0  0
   -6.4904    3.8244    0.8590 H   0  0  0  0  0  0  0  0  0  0  0  0
   -8.3958    3.8093   -0.7389 H   0  0  0  0  0  0  0  0  0  0  0  0
  -12.5100    2.2388    1.6862 H   0  0  0  0  0  0  0  0  0  0  0  0
  -14.7292    2.6760    2.7291 H   0  0  0  0  0  0  0  0  0  0  0  0
  -15.0627    6.3588    0.5048 H   0  0  0  0  0  0  0  0  0  0  0  0
  -12.8430    5.9313   -0.5402 H   0  0  0  0  0  0  0  0  0  0  0  0
  1  2  1  0
  2  3  1  0
  3  4  1  0
  4  5  1  0
  5  6  1  0
  6  7  1  0
  7  8  1  0
  8  9  1  0
  9 10  1  0
 10 11  1  0
 11 12  2  0
 11 13  1  0
  3 14  1  0
 14 15  1  0
 15 16  2  0
 16 17  1  0
 17 18  2  0
 18 19  1  0
 19 20  2  0
 14 21  1  0
 21 22  2  0
 22 23  1  0
 23 24  2  0
 24 25  1  0
 25 26  2  0
 24 27  1  0
  6  1  1  0
 20 15  1  0
 26 21  1  0
  1 28  1  0
  1 29  1  0
  2 30  1  0
  2 31  1  0
  4 32  1  0
  4 33  1  0
  5 34  1  0
  5 35  1  0
  7 36  1  0
  7 37  1  0
  8 38  1  0
  8 39  1  0
 10 40  1  0
 10 41  1  0
 13 42  1  0
 14 43  1  0
 16 44  1  0
 17 45  1  0
 18 46  1  0
 19 47  1  0
 20 48  1  0
 22 49  1  0
 23 50  1  0
 25 51  1  0
 26 52  1  0
M  END
