
     RDKit          3D

 48 49  0  0  0  0  0  0  0  0999 V2000
   -7.3420    1.8680   -6.4290 C   0  0  0  0  0  0  0  0  0  0  0  0
   -8.1690    2.2250   -5.1990 C   0  0  0  0  0  0  0  0  0  0  0  0
   -9.6210    2.2930   -5.4520 N   0  0  0  0  0  0  0  0  0  0  0  0
   -9.9890    2.0800   -6.8620 C   0  0  0  0  0  0  0  0  0  0  0  0
  -10.3160    3.3260   -7.6780 C   0  0  0  0  0  0  0  0  0  0  0  0
  -10.3320    1.4090   -4.5110 C   0  0  0  0  0  0  0  0  0  0  0  0
   -9.9470    1.5840   -3.0330 C   0  0  0  0  0  0  0  0  0  0  0  0
  -10.3390    2.9630   -2.4800 C   0  0  0  0  0  0  0  0  0  0  0  0
  -10.3690    3.0640   -0.9390 C   0  0  0  0  0  0  0  0  0  0  0  0
   -8.9930    3.4170   -0.3720 C   0  0  0  0  0  0  0  0  0  0  0  0
  -11.3580    4.0710   -0.5330 N   0  0  0  0  0  0  0  0  0  0  0  0
  -12.4340    3.7920    0.3300 C   0  0  0  0  0  0  0  0  0  0  0  0
  -13.4880    4.7440    0.4680 C   0  0  0  0  0  0  0  0  0  0  0  0
  -13.5230    5.9840   -0.2160 C   0  0  0  0  0  0  0  0  0  0  0  0
  -14.5850    6.8730   -0.0560 C   0  0  0  0  0  0  0  0  0  0  0  0
  -15.6260    6.5370    0.7950 C   0  0  0  0  0  0  0  0  0  0  0  0
  -15.6040    5.3310    1.4900 C   0  0  0  0  0  0  0  0  0  0  0  0
  -14.5550    4.4360    1.3480 C   0  0  0  0  0  0  0  0  0  0  0  0
  -14.6010    3.3080    2.0690 N   0  0  0  0  0  0  0  0  0  0  0  0
  -13.5700    2.4510    1.9590 C   0  0  0  0  0  0  0  0  0  0  0  0
  -12.4830    2.6500    1.1280 C   0  0  0  0  0  0  0  0  0  0  0  0
  -16.9450    7.6220    1.0030 Cl  0  0  0  0  0  0  0  0  0  0  0  0
   -6.3749    1.4505   -6.1121 H   0  0  0  0  0  0  0  0  0  0  0  0
   -7.8832    1.1234   -7.0312 H   0  0  0  0  0  0  0  0  0  0  0  0
   -7.1712    2.7725   -7.0312 H   0  0  0  0  0  0  0  0  0  0  0  0
   -7.9876    1.4628   -4.4269 H   0  0  0  0  0  0  0  0  0  0  0  0
   -7.8532    3.2304   -4.8836 H   0  0  0  0  0  0  0  0  0  0  0  0
   -9.1469    1.5707   -7.3534 H   0  0  0  0  0  0  0  0  0  0  0  0
  -10.9225    1.4987   -6.8335 H   0  0  0  0  0  0  0  0  0  0  0  0
  -10.5355    4.1624   -6.9981 H   0  0  0  0  0  0  0  0  0  0  0  0
   -9.4555    3.5852   -8.3123 H   0  0  0  0  0  0  0  0  0  0  0  0
  -11.1929    3.1292   -8.3123 H   0  0  0  0  0  0  0  0  0  0  0  0
  -11.4100    1.6052   -4.6077 H   0  0  0  0  0  0  0  0  0  0  0  0
  -10.0473    0.3816   -4.7818 H   0  0  0  0  0  0  0  0  0  0  0  0
  -10.4572    0.8093   -2.4418 H   0  0  0  0  0  0  0  0  0  0  0  0
   -8.8530    1.4945   -2.9606 H   0  0  0  0  0  0  0  0  0  0  0  0
   -9.6143    3.7001   -2.8562 H   0  0  0  0  0  0  0  0  0  0  0  0
  -11.3683    3.1494   -2.8203 H   0  0  0  0  0  0  0  0  0  0  0  0
  -10.6526    2.0813   -0.5342 H   0  0  0  0  0  0  0  0  0  0  0  0
   -9.0355    3.4061    0.7271 H   0  0  0  0  0  0  0  0  0  0  0  0
   -8.2538    2.6794   -0.7177 H   0  0  0  0  0  0  0  0  0  0  0  0
   -8.7001    4.4194   -0.7177 H   0  0  0  0  0  0  0  0  0  0  0  0
  -11.2591    5.0290   -0.8981 H   0  0  0  0  0  0  0  0  0  0  0  0
  -12.6942    6.2513   -0.8880 H   0  0  0  0  0  0  0  0  0  0  0  0
  -14.5965    7.8297   -0.5987 H   0  0  0  0  0  0  0  0  0  0  0  0
  -16.4360    5.0832    2.1656 H   0  0  0  0  0  0  0  0  0  0  0  0
  -13.5931    1.5352    2.5679 H   0  0  0  0  0  0  0  0  0  0  0  0
  -11.6654    1.9148    1.0969 H   0  0  0  0  0  0  0  0  0  0  0  0
  1  2  1  0
  2  3  1  0
  3  4  1  0
  4  5  1  0
  3  6  1  0
  6  7  1  0
  7  8  1  0
  8  9  1  0
  9 10  1  0
  9 11  1  0
 11 12  1  0
 12 13  2  0
 13 14  1  0
 14 15  2  0
 15 16  1  0
 16 17  2  0
 17 18  1  0
 18 19  2  0
 19 20  1  0
 20 21  2  0
 16 22  1  0
 21 12  1  0
 18 13  1  0
  1 23  1  0
  1 24  1  0
  1 25  1  0
  2 26  1  0
  2 27  1  0
  4 28  1  0
  4 29  1  0
  5 30  1  0
  5 31  1  0
  5 32  1  0
  6 33  1  0
  6 34  1  0
  7 35  1  0
  7 36  1  0
  8 37  1  0
  8 38  1  0
  9 39  1  0
 10 40  1  0
 10 41  1  0
 10 42  1  0
 11 43  1  0
 14 44  1  0
 15 45  1  0
 17 46  1  0
 20 47  1  0
 21 48  1  0
M  END
