
     RDKit          3D

 54 57  0  0  0  0  0  0  0  0999 V2000
   -9.7530    1.6520   -3.5800 C   0  0  0  0  0  0  0  0  0  0  0  0
  -10.4090    2.6580   -2.7490 N   0  0  0  0  0  0  0  0  0  0  0  0
   -9.8560    2.6450   -1.3860 C   0  0  0  0  0  0  0  0  0  0  0  0
  -10.7640    3.3780   -0.4030 C   0  0  0  0  0  0  0  0  0  0  0  0
  -12.1290    2.6760   -0.2800 C   0  0  0  0  0  0  0  0  0  0  0  0
  -12.4880    1.9070   -1.5620 C   0  0  0  0  0  0  0  0  0  0  0  0
  -11.8730    2.5540   -2.8010 C   0  0  0  0  0  0  0  0  0  0  0  0
  -13.2280    3.6780    0.1070 C   0  0  0  0  0  0  0  0  0  0  0  0
  -13.3160    3.7290    1.5310 O   0  0  0  0  0  0  0  0  0  0  0  0
  -14.1070    2.8040    2.1620 C   0  0  0  0  0  0  0  0  0  0  0  0
  -15.2850    3.2960    2.7450 C   0  0  0  0  0  0  0  0  0  0  0  0
  -16.1380    2.4070    3.4020 C   0  0  0  0  0  0  0  0  0  0  0  0
  -15.8310    1.0230    3.4880 C   0  0  0  0  0  0  0  0  0  0  0  0
  -14.6420    0.5490    2.9200 C   0  0  0  0  0  0  0  0  0  0  0  0
  -13.8040    1.4420    2.2660 C   0  0  0  0  0  0  0  0  0  0  0  0
  -14.2750   -0.7340    2.9820 N   0  0  0  0  0  0  0  0  0  0  0  0
  -15.1000   -1.5660    3.6260 C   0  0  0  0  0  0  0  0  0  0  0  0
  -16.2580   -1.2380    4.2020 N   0  0  0  0  0  0  0  0  0  0  0  0
  -16.6320    0.0510    4.1220 C   0  0  0  0  0  0  0  0  0  0  0  0
  -17.8740    0.4470    4.6860 N   0  0  0  0  0  0  0  0  0  0  0  0
  -18.7240   -0.2950    5.5390 C   0  0  0  0  0  0  0  0  0  0  0  0
  -19.6190   -1.2190    4.9740 C   0  0  0  0  0  0  0  0  0  0  0  0
  -20.5260   -1.9400    5.7460 C   0  0  0  0  0  0  0  0  0  0  0  0
  -20.5620   -1.7230    7.1170 C   0  0  0  0  0  0  0  0  0  0  0  0
  -19.7090   -0.7910    7.7080 C   0  0  0  0  0  0  0  0  0  0  0  0
  -18.8020   -0.0740    6.9180 C   0  0  0  0  0  0  0  0  0  0  0  0
  -21.7850   -2.6870    8.1890 Br  0  0  0  0  0  0  0  0  0  0  0  0
  -19.5940   -1.4220    3.6480 F   0  0  0  0  0  0  0  0  0  0  0  0
  -15.5100    4.6410    2.6150 O   0  0  0  0  0  0  0  0  0  0  0  0
  -16.7520    5.1560    3.0790 C   0  0  0  0  0  0  0  0  0  0  0  0
   -9.2660    0.9051   -2.9358 H   0  0  0  0  0  0  0  0  0  0  0  0
  -10.5018    1.1560   -4.2151 H   0  0  0  0  0  0  0  0  0  0  0  0
   -8.9971    2.1372   -4.2151 H   0  0  0  0  0  0  0  0  0  0  0  0
   -9.7427    1.6015   -1.0569 H   0  0  0  0  0  0  0  0  0  0  0  0
   -8.8839    3.1595   -1.4048 H   0  0  0  0  0  0  0  0  0  0  0  0
  -10.2808    3.3995    0.5849 H   0  0  0  0  0  0  0  0  0  0  0  0
  -10.9289    4.3999   -0.7751 H   0  0  0  0  0  0  0  0  0  0  0  0
  -12.0530    1.9338    0.5283 H   0  0  0  0  0  0  0  0  0  0  0  0
  -12.1141    0.8761   -1.4756 H   0  0  0  0  0  0  0  0  0  0  0  0
  -13.5821    1.9219   -1.6752 H   0  0  0  0  0  0  0  0  0  0  0  0
  -12.1471    1.9514   -3.6795 H   0  0  0  0  0  0  0  0  0  0  0  0
  -12.2659    3.5800   -2.8558 H   0  0  0  0  0  0  0  0  0  0  0  0
  -12.9758    4.6745   -0.2848 H   0  0  0  0  0  0  0  0  0  0  0  0
  -14.1919    3.3618   -0.3183 H   0  0  0  0  0  0  0  0  0  0  0  0
  -17.0635    2.7850    3.8608 H   0  0  0  0  0  0  0  0  0  0  0  0
  -12.8730    1.0672    1.8157 H   0  0  0  0  0  0  0  0  0  0  0  0
  -14.7951   -2.6212    3.6868 H   0  0  0  0  0  0  0  0  0  0  0  0
  -18.1965    1.3945    4.4431 H   0  0  0  0  0  0  0  0  0  0  0  0
  -21.2030   -2.6696    5.2775 H   0  0  0  0  0  0  0  0  0  0  0  0
  -19.7488   -0.6194    8.7938 H   0  0  0  0  0  0  0  0  0  0  0  0
  -18.1433    0.6716    7.3873 H   0  0  0  0  0  0  0  0  0  0  0  0
  -16.7597    5.1592    4.1790 H   0  0  0  0  0  0  0  0  0  0  0  0
  -16.8844    6.1832    2.7084 H   0  0  0  0  0  0  0  0  0  0  0  0
  -17.5725    4.5239    2.7084 H   0  0  0  0  0  0  0  0  0  0  0  0
  1  2  1  0
  2  3  1  0
  3  4  1  0
  4  5  1  0
  5  6  1  0
  6  7  1  0
  5  8  1  0
  8  9  1  0
  9 10  1  0
 10 11  2  0
 11 12  1  0
 12 13  2  0
 13 14  1  0
 14 15  2  0
 14 16  1  0
 16 17  2  0
 17 18  1  0
 18 19  2  0
 19 20  1  0
 20 21  1  0
 21 22  2  0
 22 23  1  0
 23 24  2  0
 24 25  1  0
 25 26  2  0
 24 27  1  0
 22 28  1  0
 11 29  1  0
 29 30  1  0
  7  2  1  0
 15 10  1  0
 19 13  1  0
 26 21  1  0
  1 31  1  0
  1 32  1  0
  1 33  1  0
  3 34  1  0
  3 35  1  0
  4 36  1  0
  4 37  1  0
  5 38  1  0
  6 39  1  0
  6 40  1  0
  7 41  1  0
  7 42  1  0
  8 43  1  0
  8 44  1  0
 12 45  1  0
 15 46  1  0
 17 47  1  0
 20 48  1  0
 23 49  1  0
 25 50  1  0
 26 51  1  0
 30 52  1  0
 30 53  1  0
 30 54  1  0
M  END
