
     RDKit          3D

 43 45  0  0  0  0  0  0  0  0999 V2000
   -7.2190    4.2710    1.1990 C   0  0  0  0  0  0  0  0  0  0  0  0
   -8.5260    3.8130    0.6320 C   0  0  0  0  0  0  0  0  0  0  0  0
   -8.5660    3.0860   -0.5440 C   0  0  0  0  0  0  0  0  0  0  0  0
   -9.7010    2.6420   -1.1230 N   0  0  0  0  0  0  0  0  0  0  0  0
  -10.8820    2.8930   -0.5010 C   0  0  0  0  0  0  0  0  0  0  0  0
  -10.9600    3.6260    0.6930 C   0  0  0  0  0  0  0  0  0  0  0  0
   -9.7570    4.1240    1.2170 C   0  0  0  0  0  0  0  0  0  0  0  0
   -9.7720    4.8710    2.3700 O   0  0  0  0  0  0  0  0  0  0  0  0
   -9.4960    4.0440    3.5020 C   0  0  0  0  0  0  0  0  0  0  0  0
  -12.2750    3.9200    1.3600 C   0  0  0  0  0  0  0  0  0  0  0  0
  -12.1020    2.3320   -1.1890 C   0  0  0  0  0  0  0  0  0  0  0  0
  -11.8000    2.0410   -2.9600 S   0  0  0  0  0  0  0  0  0  0  0  0
  -13.0630    2.2920   -3.7360 O   0  0  0  0  0  0  0  0  0  0  0  0
  -11.6820    0.2470   -2.8530 C   0  0  0  0  0  0  0  0  0  0  0  0
  -10.7620   -0.4890   -3.4380 N   0  0  0  0  0  0  0  0  0  0  0  0
  -11.0680   -1.7810   -3.0850 C   0  0  0  0  0  0  0  0  0  0  0  0
  -12.1930   -1.8250   -2.2690 C   0  0  0  0  0  0  0  0  0  0  0  0
  -12.5660   -0.5130   -2.1390 N   0  0  0  0  0  0  0  0  0  0  0  0
  -12.7230   -3.0120   -1.7600 C   0  0  0  0  0  0  0  0  0  0  0  0
  -12.0730   -4.2060   -2.1030 C   0  0  0  0  0  0  0  0  0  0  0  0
  -10.9400   -4.1890   -2.9240 C   0  0  0  0  0  0  0  0  0  0  0  0
  -10.4260   -2.9800   -3.4220 C   0  0  0  0  0  0  0  0  0  0  0  0
  -12.6520   -5.3280   -1.5670 O   0  0  0  0  0  0  0  0  0  0  0  0
  -13.9860   -5.2020   -1.0900 C   0  0  0  0  0  0  0  0  0  0  0  0
   -7.2696    4.2533    2.2977 H   0  0  0  0  0  0  0  0  0  0  0  0
   -6.4163    3.6006    0.8580 H   0  0  0  0  0  0  0  0  0  0  0  0
   -7.0104    5.2958    0.8580 H   0  0  0  0  0  0  0  0  0  0  0  0
   -7.6112    2.8550   -1.0390 H   0  0  0  0  0  0  0  0  0  0  0  0
   -9.6853    4.6112    4.4253 H   0  0  0  0  0  0  0  0  0  0  0  0
  -10.1471    3.1578    3.4761 H   0  0  0  0  0  0  0  0  0  0  0  0
   -8.4432    3.7264    3.4761 H   0  0  0  0  0  0  0  0  0  0  0  0
  -12.1467    3.8913    2.4521 H   0  0  0  0  0  0  0  0  0  0  0  0
  -12.6242    4.9184    1.0579 H   0  0  0  0  0  0  0  0  0  0  0  0
  -13.0162    3.1654    1.0579 H   0  0  0  0  0  0  0  0  0  0  0  0
  -12.3738    1.3787   -0.7121 H   0  0  0  0  0  0  0  0  0  0  0  0
  -12.9167    3.0652   -1.0954 H   0  0  0  0  0  0  0  0  0  0  0  0
  -13.3698   -0.1617   -1.5991 H   0  0  0  0  0  0  0  0  0  0  0  0
  -13.6146   -3.0106   -1.1158 H   0  0  0  0  0  0  0  0  0  0  0  0
  -10.4445   -5.1362   -3.1833 H   0  0  0  0  0  0  0  0  0  0  0  0
   -9.5342   -2.9748   -4.0659 H   0  0  0  0  0  0  0  0  0  0  0  0
  -13.9836   -5.2022    0.0100 H   0  0  0  0  0  0  0  0  0  0  0  0
  -14.4186   -4.2590   -1.4555 H   0  0  0  0  0  0  0  0  0  0  0  0
  -14.5875   -6.0473   -1.4555 H   0  0  0  0  0  0  0  0  0  0  0  0
  1  2  1  0
  2  3  2  0
  3  4  1  0
  4  5  2  0
  5  6  1  0
  6  7  2  0
  7  8  1  0
  8  9  1  0
  6 10  1  0
  5 11  1  0
 11 12  1  0
 12 13  2  0
 12 14  1  0
 14 15  2  0
 15 16  1  0
 16 17  2  0
 17 18  1  0
 17 19  1  0
 19 20  2  0
 20 21  1  0
 21 22  2  0
 20 23  1  0
 23 24  1  0
  7  2  1  0
 18 14  1  0
 22 16  1  0
  1 25  1  0
  1 26  1  0
  1 27  1  0
  3 28  1  0
  9 29  1  0
  9 30  1  0
  9 31  1  0
 10 32  1  0
 10 33  1  0
 10 34  1  0
 11 35  1  0
 11 36  1  0
 18 37  1  0
 19 38  1  0
 21 39  1  0
 22 40  1  0
 24 41  1  0
 24 42  1  0
 24 43  1  0
M  END
