
     RDKit          3D

 56 59  0  0  0  0  0  0  0  0999 V2000
  -13.6020   -5.0050    6.2930 C   0  0  0  0  0  0  0  0  0  0  0  0
  -14.5750   -5.2000    5.1160 C   0  0  2  0  0  0  0  0  0  0  0  0
  -13.7940   -5.3040    3.7830 C   0  0  1  0  0  0  0  0  0  0  0  0
  -14.5150   -6.0720    2.6550 C   0  0  1  0  0  0  0  0  0  0  0  0
  -13.5870   -6.2430    1.3990 C   0  0  1  0  0  0  0  0  0  0  0  0
  -14.4030   -6.9220    0.2580 C   0  0  1  0  0  0  0  0  0  0  0  0
  -15.4480   -5.8900   -0.1860 C   0  0  0  0  0  0  0  0  0  0  0  0
  -16.6450   -6.1810   -0.2670 O   0  0  0  0  0  0  0  0  0  0  0  0
  -14.9740   -4.5190   -0.5390 C   0  0  0  0  0  0  0  0  0  0  0  0
  -13.7840   -4.1080   -0.0470 C   0  0  0  0  0  0  0  0  0  0  0  0
  -12.9240   -4.9240    0.9060 C   0  0  1  0  0  0  0  0  0  0  0  0
  -12.4950   -4.0360    2.1070 C   0  0  0  0  0  0  0  0  0  0  0  0
  -11.4040   -3.4790    2.1950 O   0  0  0  0  0  0  0  0  0  0  0  0
  -13.4860   -3.9630    3.2050 C   0  0  0  0  0  0  0  0  0  0  0  0
  -14.1730   -2.8410    3.4580 C   0  0  0  0  0  0  0  0  0  0  0  0
  -15.3470   -2.8850    4.3680 C   0  0  0  0  0  0  0  0  0  0  0  0
  -15.5790   -4.0570    5.1240 C   0  0  0  0  0  0  0  0  0  0  0  0
  -16.7100   -4.1500    5.9560 C   0  0  0  0  0  0  0  0  0  0  0  0
  -17.6100   -3.0930    6.0460 C   0  0  0  0  0  0  0  0  0  0  0  0
  -17.3900   -1.9280    5.3180 C   0  0  0  0  0  0  0  0  0  0  0  0
  -16.2690   -1.8290    4.4920 C   0  0  0  0  0  0  0  0  0  0  0  0
  -16.0700   -0.6690    3.7820 O   0  0  0  0  0  0  0  0  0  0  0  0
  -13.9110   -1.6770    2.7720 O   0  0  0  0  0  0  0  0  0  0  0  0
  -11.7230   -5.2490    0.1930 O   0  0  0  0  0  0  0  0  0  0  0  0
  -13.2050   -2.8900   -0.3980 O   0  0  0  0  0  0  0  0  0  0  0  0
  -15.7590   -3.6180   -1.4300 C   0  0  0  0  0  0  0  0  0  0  0  0
  -16.9160   -3.2910   -1.1740 O   0  0  0  0  0  0  0  0  0  0  0  0
  -15.1470   -3.1720   -2.5560 N   0  0  0  0  0  0  0  0  0  0  0  0
  -13.6540   -7.3960   -0.9410 N   0  0  0  0  0  0  0  0  0  0  0  0
  -12.7030   -8.4630   -0.6010 C   0  0  0  0  0  0  0  0  0  0  0  0
  -14.5630   -7.9000   -1.9810 C   0  0  0  0  0  0  0  0  0  0  0  0
  -14.8690   -7.3790    3.1110 O   0  0  0  0  0  0  0  0  0  0  0  0
  -14.1477   -5.1144    7.2418 H   0  0  0  0  0  0  0  0  0  0  0  0
  -12.8051   -5.7613    6.2391 H   0  0  0  0  0  0  0  0  0  0  0  0
  -13.1580   -4.0000    6.2391 H   0  0  0  0  0  0  0  0  0  0  0  0
  -15.1297   -6.1440    5.2220 H   0  0  0  0  0  0  0  0  0  0  0  0
  -12.8920   -5.8558    4.0863 H   0  0  0  0  0  0  0  0  0  0  0  0
  -15.4080   -5.4922    2.3789 H   0  0  0  0  0  0  0  0  0  0  0  0
  -12.7442   -6.8805    1.7044 H   0  0  0  0  0  0  0  0  0  0  0  0
  -14.8087   -7.8519    0.6831 H   0  0  0  0  0  0  0  0  0  0  0  0
  -16.8839   -5.0658    6.5399 H   0  0  0  0  0  0  0  0  0  0  0  0
  -18.4956   -3.1783    6.6928 H   0  0  0  0  0  0  0  0  0  0  0  0
  -18.0966   -1.0883    5.3930 H   0  0  0  0  0  0  0  0  0  0  0  0
  -15.2809   -0.5796    3.1909 H   0  0  0  0  0  0  0  0  0  0  0  0
  -14.4287   -0.8572    2.9722 H   0  0  0  0  0  0  0  0  0  0  0  0
  -10.9987   -5.4450    0.8388 H   0  0  0  0  0  0  0  0  0  0  0  0
  -12.3311   -2.6283   -0.0134 H   0  0  0  0  0  0  0  0  0  0  0  0
  -15.6497   -2.5472   -3.2024 H   0  0  0  0  0  0  0  0  0  0  0  0
  -14.1798   -3.4583   -2.7643 H   0  0  0  0  0  0  0  0  0  0  0  0
  -12.6253   -8.5501    0.4928 H   0  0  0  0  0  0  0  0  0  0  0  0
  -13.0563   -9.4165   -1.0206 H   0  0  0  0  0  0  0  0  0  0  0  0
  -11.7153   -8.2213   -1.0206 H   0  0  0  0  0  0  0  0  0  0  0  0
  -15.4312   -8.3814   -1.5072 H   0  0  0  0  0  0  0  0  0  0  0  0
  -14.9044   -7.0623   -2.6069 H   0  0  0  0  0  0  0  0  0  0  0  0
  -14.0334   -8.6333   -2.6069 H   0  0  0  0  0  0  0  0  0  0  0  0
  -14.8729   -7.3933    4.1009 H   0  0  0  0  0  0  0  0  0  0  0  0
  1  2  1  0
  2  3  1  0
  3  4  1  0
  4  5  1  0
  5  6  1  0
  6  7  1  0
  7  8  2  0
  7  9  1  0
  9 10  2  0
 10 11  1  0
 11 12  1  0
 12 13  2  0
 12 14  1  0
 14 15  2  0
 15 16  1  0
 16 17  2  0
 17 18  1  0
 18 19  2  0
 19 20  1  0
 20 21  2  0
 21 22  1  0
 15 23  1  0
 11 24  1  6
 10 25  1  0
  9 26  1  0
 26 27  2  0
 26 28  1  0
  6 29  1  0
 29 30  1  0
 29 31  1  0
  4 32  1  0
 17  2  1  0
 14  3  1  0
 11  5  1  0
 21 16  1  0
  1 33  1  0
  1 34  1  0
  1 35  1  0
  2 36  1  1
  3 37  1  1
  4 38  1  6
  5 39  1  1
  6 40  1  1
 18 41  1  0
 19 42  1  0
 20 43  1  0
 22 44  1  0
 23 45  1  0
 24 46  1  0
 25 47  1  0
 28 48  1  0
 28 49  1  0
 30 50  1  0
 30 51  1  0
 30 52  1  0
 31 53  1  0
 31 54  1  0
 31 55  1  0
 32 56  1  0
M  END
