
     RDKit          3D

 34 36  0  0  0  0  0  0  0  0999 V2000
  -14.4360    4.1960    1.1450 C   0  0  0  0  0  0  0  0  0  0  0  0
  -13.6030    5.0260    0.4060 C   0  0  0  0  0  0  0  0  0  0  0  0
  -14.3240    6.2440    0.2220 C   0  0  0  0  0  0  0  0  0  0  0  0
  -15.5490    6.1230    0.8620 C   0  0  0  0  0  0  0  0  0  0  0  0
  -15.6030    4.8670    1.4060 N   0  0  0  0  0  0  0  0  0  0  0  0
  -16.4540    7.1710    0.8480 C   0  0  0  0  0  0  0  0  0  0  0  0
  -16.1100    8.2860    0.1880 N   0  0  0  0  0  0  0  0  0  0  0  0
  -14.9040    8.3240   -0.4080 C   0  0  0  0  0  0  0  0  0  0  0  0
  -13.9670    7.3640   -0.4430 N   0  0  0  0  0  0  0  0  0  0  0  0
  -17.6840    7.1390    1.4880 N   0  0  0  0  0  0  0  0  0  0  0  0
  -12.2290    4.6800   -0.0720 C   0  0  1  0  0  0  0  0  0  0  0  0
  -11.4540    3.6700    0.7880 C   0  0  1  0  0  0  0  0  0  0  0  0
  -10.4990    3.0650   -0.2350 C   0  0  1  0  0  0  0  0  0  0  0  0
  -11.3470    2.9950   -1.5040 C   0  0  2  0  0  0  0  0  0  0  0  0
  -12.3340    4.1170   -1.4350 N   0  0  0  0  0  0  0  0  0  0  0  0
  -12.1200    1.6710   -1.6090 C   0  0  0  0  0  0  0  0  0  0  0  0
  -13.0340    1.7380   -2.7030 O   0  0  0  0  0  0  0  0  0  0  0  0
   -9.3870    3.9520   -0.4340 O   0  0  0  0  0  0  0  0  0  0  0  0
  -10.7040    4.2860    1.8410 O   0  0  0  0  0  0  0  0  0  0  0  0
  -14.1991    3.1713    1.4672 H   0  0  0  0  0  0  0  0  0  0  0  0
  -16.4010    4.4838    1.9325 H   0  0  0  0  0  0  0  0  0  0  0  0
  -14.6553    9.2587   -0.9319 H   0  0  0  0  0  0  0  0  0  0  0  0
  -18.3117    7.9541    1.4384 H   0  0  0  0  0  0  0  0  0  0  0  0
  -17.9697    6.3001    2.0129 H   0  0  0  0  0  0  0  0  0  0  0  0
  -11.6625    5.6216   -0.0224 H   0  0  0  0  0  0  0  0  0  0  0  0
  -12.1193    2.9582    1.2985 H   0  0  0  0  0  0  0  0  0  0  0  0
  -10.0889    2.0895    0.0653 H   0  0  0  0  0  0  0  0  0  0  0  0
  -10.6873    3.0663   -2.3814 H   0  0  0  0  0  0  0  0  0  0  0  0
  -12.1059    4.8361   -2.1363 H   0  0  0  0  0  0  0  0  0  0  0  0
  -11.4120    0.8453   -1.7730 H   0  0  0  0  0  0  0  0  0  0  0  0
  -12.6771    1.4973   -0.6765 H   0  0  0  0  0  0  0  0  0  0  0  0
  -13.9589    1.8058   -2.3566 H   0  0  0  0  0  0  0  0  0  0  0  0
   -9.0304    4.2364    0.4447 H   0  0  0  0  0  0  0  0  0  0  0  0
  -11.0615    3.9923    2.7162 H   0  0  0  0  0  0  0  0  0  0  0  0
  1  2  2  0
  2  3  1  0
  3  4  2  0
  4  5  1  0
  4  6  1  0
  6  7  2  0
  7  8  1  0
  8  9  2  0
  6 10  1  0
  2 11  1  0
 11 12  1  0
 12 13  1  0
 13 14  1  0
 14 15  1  0
 14 16  1  0
 16 17  1  0
 13 18  1  0
 12 19  1  0
  5  1  1  0
  9  3  1  0
 15 11  1  0
  1 20  1  0
  5 21  1  0
  8 22  1  0
 10 23  1  0
 10 24  1  0
 11 25  1  6
 12 26  1  1
 13 27  1  1
 14 28  1  6
 15 29  1  0
 16 30  1  0
 16 31  1  0
 17 32  1  0
 18 33  1  0
 19 34  1  0
M  END
