
     RDKit          3D

 31 32  0  0  0  0  0  0  0  0999 V2000
  -16.7340    4.0440    3.3600 C   0  0  0  0  0  0  0  0  0  0  0  0
  -16.0210    4.8710    2.3420 C   0  0  0  0  0  0  0  0  0  0  0  0
  -14.9320    4.4730    1.6730 C   0  0  0  0  0  0  0  0  0  0  0  0
  -14.3050    5.2710    0.7370 N   0  0  0  0  0  0  0  0  0  0  0  0
  -14.7540    6.5520    0.4560 C   0  0  0  0  0  0  0  0  0  0  0  0
  -14.1990    7.3050   -0.3430 O   0  0  0  0  0  0  0  0  0  0  0  0
  -15.8760    6.9520    1.1280 N   0  0  0  0  0  0  0  0  0  0  0  0
  -16.5580    6.2220    2.0580 C   0  0  0  0  0  0  0  0  0  0  0  0
  -17.5510    6.6600    2.6270 O   0  0  0  0  0  0  0  0  0  0  0  0
  -13.0870    4.8520    0.0540 C   0  0  1  0  0  0  0  0  0  0  0  0
  -11.9760    4.3460    0.9850 C   0  0  2  0  0  0  0  0  0  0  0  0
  -11.3090    3.2870    0.1330 C   0  0  1  0  0  0  0  0  0  0  0  0
  -12.5200    2.6780   -0.5650 C   0  0  1  0  0  0  0  0  0  0  0  0
  -13.3480    3.8130   -0.9190 O   0  0  0  0  0  0  0  0  0  0  0  0
  -12.1850    1.8560   -1.8070 C   0  0  0  0  0  0  0  0  0  0  0  0
  -11.9560    2.7320   -2.9120 O   0  0  0  0  0  0  0  0  0  0  0  0
  -10.3760    3.8660   -0.7850 O   0  0  0  0  0  0  0  0  0  0  0  0
  -12.5110    3.7340    2.0820 F   0  0  0  0  0  0  0  0  0  0  0  0
  -16.4473    4.3765    4.3686 H   0  0  0  0  0  0  0  0  0  0  0  0
  -17.8203    4.1595    3.2308 H   0  0  0  0  0  0  0  0  0  0  0  0
  -16.4598    2.9866    3.2308 H   0  0  0  0  0  0  0  0  0  0  0  0
  -14.5214    3.4730    1.8766 H   0  0  0  0  0  0  0  0  0  0  0  0
  -16.2400    7.8911    0.9123 H   0  0  0  0  0  0  0  0  0  0  0  0
  -12.7332    5.7725   -0.4334 H   0  0  0  0  0  0  0  0  0  0  0  0
  -11.3142    5.1482    1.3436 H   0  0  0  0  0  0  0  0  0  0  0  0
  -10.7042    2.5560    0.6896 H   0  0  0  0  0  0  0  0  0  0  0  0
  -13.0137    1.9587    0.1049 H   0  0  0  0  0  0  0  0  0  0  0  0
  -11.2801    1.2596   -1.6186 H   0  0  0  0  0  0  0  0  0  0  0  0
  -13.0252    1.1853   -2.0396 H   0  0  0  0  0  0  0  0  0  0  0  0
  -11.7205    3.6328   -2.5757 H   0  0  0  0  0  0  0  0  0  0  0  0
   -9.6522    4.3152   -0.2806 H   0  0  0  0  0  0  0  0  0  0  0  0
  1  2  1  0
  2  3  2  0
  3  4  1  0
  4  5  1  0
  5  6  2  0
  5  7  1  0
  7  8  1  0
  8  9  2  0
  4 10  1  0
 10 11  1  0
 11 12  1  0
 12 13  1  0
 13 14  1  0
 13 15  1  0
 15 16  1  0
 12 17  1  0
 11 18  1  0
  8  2  1  0
 14 10  1  0
  1 19  1  0
  1 20  1  0
  1 21  1  0
  3 22  1  0
  7 23  1  0
 10 24  1  1
 11 25  1  6
 12 26  1  6
 13 27  1  1
 15 28  1  0
 15 29  1  0
 16 30  1  0
 17 31  1  0
M  END
