
     RDKit          3D

 29 30  0  0  0  0  0  0  0  0999 V2000
  -11.6890    1.9280   -4.1800 C   0  0  0  0  0  0  0  0  0  0  0  0
  -12.5720    2.1930   -3.1240 C   0  0  0  0  0  0  0  0  0  0  0  0
  -12.0950    2.6100   -1.8770 C   0  0  0  0  0  0  0  0  0  0  0  0
  -10.7030    2.7570   -1.7070 C   0  0  0  0  0  0  0  0  0  0  0  0
   -9.8110    2.4960   -2.7510 C   0  0  0  0  0  0  0  0  0  0  0  0
  -10.3120    2.0790   -3.9880 C   0  0  0  0  0  0  0  0  0  0  0  0
   -9.3860    1.8020   -5.0920 N   0  0  0  0  0  0  0  0  0  0  0  0
   -9.8430    1.2430   -6.0990 O   0  0  0  0  0  0  0  0  0  0  0  0
   -8.2030    2.1420   -4.9520 O   0  0  0  0  0  0  0  0  0  0  0  0
  -10.0340    3.2690   -0.1930 Cl  0  0  0  0  0  0  0  0  0  0  0  0
  -12.9430    2.8910   -0.7810 N   0  0  0  0  0  0  0  0  0  0  0  0
  -13.2250    4.1100   -0.2000 C   0  0  0  0  0  0  0  0  0  0  0  0
  -12.7630    5.1890   -0.5600 O   0  0  0  0  0  0  0  0  0  0  0  0
  -14.1780    4.0950    0.9640 C   0  0  0  0  0  0  0  0  0  0  0  0
  -14.1850    3.1220    1.9780 C   0  0  0  0  0  0  0  0  0  0  0  0
  -15.1080    3.1860    3.0260 C   0  0  0  0  0  0  0  0  0  0  0  0
  -16.0370    4.2270    3.0730 C   0  0  0  0  0  0  0  0  0  0  0  0
  -16.0390    5.1960    2.0740 C   0  0  0  0  0  0  0  0  0  0  0  0
  -15.1200    5.1360    1.0270 C   0  0  0  0  0  0  0  0  0  0  0  0
  -17.1850    6.4770    2.1360 Cl  0  0  0  0  0  0  0  0  0  0  0  0
  -13.2870    2.0880    1.9620 O   0  0  0  0  0  0  0  0  0  0  0  0
  -12.0778    1.6025   -5.1561 H   0  0  0  0  0  0  0  0  0  0  0  0
  -13.6543    2.0714   -3.2781 H   0  0  0  0  0  0  0  0  0  0  0  0
   -8.7280    2.6172   -2.6013 H   0  0  0  0  0  0  0  0  0  0  0  0
  -13.4130    2.0768   -0.3602 H   0  0  0  0  0  0  0  0  0  0  0  0
  -15.1023    2.4171    3.8126 H   0  0  0  0  0  0  0  0  0  0  0  0
  -16.7645    4.2812    3.8963 H   0  0  0  0  0  0  0  0  0  0  0  0
  -15.1324    5.9091    0.2446 H   0  0  0  0  0  0  0  0  0  0  0  0
  -13.3016    1.4085    2.6819 H   0  0  0  0  0  0  0  0  0  0  0  0
  1  2  2  0
  2  3  1  0
  3  4  2  0
  4  5  1  0
  5  6  2  0
  6  7  1  0
  7  8  2  0
  7  9  1  0
  4 10  1  0
  3 11  1  0
 11 12  1  0
 12 13  2  0
 12 14  1  0
 14 15  2  0
 15 16  1  0
 16 17  2  0
 17 18  1  0
 18 19  2  0
 18 20  1  0
 15 21  1  0
  6  1  1  0
 19 14  1  0
  1 22  1  0
  2 23  1  0
  5 24  1  0
 11 25  1  0
 16 26  1  0
 17 27  1  0
 19 28  1  0
 21 29  1  0
M  CHG  2   7   1   9  -1
M  END
