
     RDKit          3D

 31 32  0  0  0  0  0  0  0  0999 V2000
  -11.9210    3.8210    0.8900 C   0  0  0  0  0  0  0  0  0  0  0  0
  -11.0110    3.1380   -0.1010 C   0  0  1  0  0  0  0  0  0  0  0  0
  -11.8320    3.1640   -1.3890 C   0  0  2  0  0  0  0  0  0  0  0  0
  -12.7800    4.2580   -1.2760 O   0  0  0  0  0  0  0  0  0  0  0  0
  -12.5940    4.8710    0.0130 C   0  0  1  0  0  0  0  0  0  0  0  0
  -13.8620    5.3380    0.5640 N   0  0  0  0  0  0  0  0  0  0  0  0
  -14.5690    4.5990    1.4950 C   0  0  0  0  0  0  0  0  0  0  0  0
  -15.7220    5.0250    2.0270 C   0  0  0  0  0  0  0  0  0  0  0  0
  -16.2430    6.3310    1.6070 C   0  0  0  0  0  0  0  0  0  0  0  0
  -17.2800    6.8040    2.0560 O   0  0  0  0  0  0  0  0  0  0  0  0
  -15.4910    7.0030    0.6830 N   0  0  0  0  0  0  0  0  0  0  0  0
  -14.2990    6.5910    0.1500 C   0  0  0  0  0  0  0  0  0  0  0  0
  -13.6800    7.3150   -0.6250 O   0  0  0  0  0  0  0  0  0  0  0  0
  -16.5400    4.2940    3.0210 C   0  0  0  0  0  0  0  0  0  0  0  0
  -16.0410    3.0680    3.3140 F   0  0  0  0  0  0  0  0  0  0  0  0
  -16.5990    4.9660    4.2050 F   0  0  0  0  0  0  0  0  0  0  0  0
  -17.8260    4.1340    2.6240 F   0  0  0  0  0  0  0  0  0  0  0  0
  -12.6500    1.8860   -1.5920 C   0  0  0  0  0  0  0  0  0  0  0  0
  -13.3880    1.9670   -2.8100 O   0  0  0  0  0  0  0  0  0  0  0  0
   -9.8300    3.9230   -0.2670 O   0  0  0  0  0  0  0  0  0  0  0  0
  -12.6555    3.1187    1.3110 H   0  0  0  0  0  0  0  0  0  0  0  0
  -11.3995    4.2357    1.7652 H   0  0  0  0  0  0  0  0  0  0  0  0
  -10.7001    2.1265    0.1993 H   0  0  0  0  0  0  0  0  0  0  0  0
  -11.1356    3.2694   -2.2339 H   0  0  0  0  0  0  0  0  0  0  0  0
  -11.9639    5.7703   -0.0518 H   0  0  0  0  0  0  0  0  0  0  0  0
  -14.1691    3.6241    1.8106 H   0  0  0  0  0  0  0  0  0  0  0  0
  -15.8576    7.9083    0.3559 H   0  0  0  0  0  0  0  0  0  0  0  0
  -11.9708    1.0218   -1.6345 H   0  0  0  0  0  0  0  0  0  0  0  0
  -13.3510    1.7690   -0.7524 H   0  0  0  0  0  0  0  0  0  0  0  0
  -14.3510    2.0727   -2.6060 H   0  0  0  0  0  0  0  0  0  0  0  0
   -9.4667    4.1645    0.6217 H   0  0  0  0  0  0  0  0  0  0  0  0
  1  2  1  0
  2  3  1  0
  3  4  1  0
  4  5  1  0
  5  6  1  0
  6  7  1  0
  7  8  2  0
  8  9  1  0
  9 10  2  0
  9 11  1  0
 11 12  1  0
 12 13  2  0
  8 14  1  0
 14 15  1  0
 14 16  1  0
 14 17  1  0
  3 18  1  0
 18 19  1  0
  2 20  1  0
  5  1  1  0
 12  6  1  0
  1 21  1  0
  1 22  1  0
  2 23  1  1
  3 24  1  6
  5 25  1  6
  7 26  1  0
 11 27  1  0
 18 28  1  0
 18 29  1  0
 19 30  1  0
 20 31  1  0
M  END
