
     RDKit          3D

 67 69  0  0  0  0  0  0  0  0999 V2000
  -10.0280   -5.4520    5.2490 C   0  0  0  0  0  0  0  0  0  0  0  0
  -10.8230   -5.4870    3.9660 C   0  0  0  0  0  0  0  0  0  0  0  0
  -10.9890   -4.1720    3.2200 C   0  0  2  0  0  0  0  0  0  0  0  0
  -12.1540   -4.7450    3.9540 C   0  0  1  0  0  0  0  0  0  0  0  0
  -13.2660   -5.0020    2.9620 C   0  0  2  0  0  0  0  0  0  0  0  0
  -12.6770   -4.6430    1.6520 N   0  0  0  0  0  0  0  0  0  0  0  0
  -11.3300   -4.0870    1.7700 C   0  0  0  0  0  0  0  0  0  0  0  0
  -13.2150   -5.1340    0.4820 C   0  0  0  0  0  0  0  0  0  0  0  0
  -14.2380   -5.8330    0.5040 O   0  0  0  0  0  0  0  0  0  0  0  0
  -12.5660   -4.7500   -0.8760 C   0  0  2  0  0  0  0  0  0  0  0  0
  -13.3120   -3.5890   -1.6090 C   0  0  0  0  0  0  0  0  0  0  0  0
  -14.2640   -2.8040   -0.6870 C   0  0  0  0  0  0  0  0  0  0  0  0
  -14.1480   -4.1810   -2.7680 C   0  0  0  0  0  0  0  0  0  0  0  0
  -12.3030   -2.5990   -2.2220 C   0  0  0  0  0  0  0  0  0  0  0  0
  -12.5560   -5.9870   -1.6650 N   0  0  0  0  0  0  0  0  0  0  0  0
  -11.4140   -6.3630   -2.3720 C   0  0  0  0  0  0  0  0  0  0  0  0
  -10.4630   -5.5930   -2.5120 O   0  0  0  0  0  0  0  0  0  0  0  0
  -11.4630   -7.7890   -2.9700 C   0  0  0  0  0  0  0  0  0  0  0  0
  -12.6080   -8.4480   -2.6440 F   0  0  0  0  0  0  0  0  0  0  0  0
  -10.4330   -8.5630   -2.5140 F   0  0  0  0  0  0  0  0  0  0  0  0
  -11.3740   -7.7930   -4.3270 F   0  0  0  0  0  0  0  0  0  0  0  0
  -14.5500   -4.1760    3.2700 C   0  0  0  0  0  0  0  0  0  0  0  0
  -15.6770   -4.6640    3.3280 O   0  0  0  0  0  0  0  0  0  0  0  0
  -14.3540   -2.8140    3.3730 N   0  0  0  0  0  0  0  0  0  0  0  0
  -15.4750   -1.8850    3.4740 C   0  0  1  0  0  0  0  0  0  0  0  0
  -16.0910   -2.0020    4.8750 C   0  0  0  0  0  0  0  0  0  0  0  0
  -16.9600   -0.8100    5.2850 C   0  0  2  0  0  0  0  0  0  0  0  0
  -17.1940   -0.6340    6.7890 C   0  0  0  0  0  0  0  0  0  0  0  0
  -18.5380    0.0680    6.8580 C   0  0  0  0  0  0  0  0  0  0  0  0
  -19.2340   -0.4500    5.7220 N   0  0  0  0  0  0  0  0  0  0  0  0
  -18.3800   -0.9580    4.7670 C   0  0  0  0  0  0  0  0  0  0  0  0
  -18.7200   -1.4050    3.6860 O   0  0  0  0  0  0  0  0  0  0  0  0
  -15.0240   -0.5040    3.1890 C   0  0  0  0  0  0  0  0  0  0  0  0
  -14.6790    0.5890    3.0000 N   0  0  0  0  0  0  0  0  0  0  0  0
  -10.6650   -6.7830    3.2090 C   0  0  0  0  0  0  0  0  0  0  0  0
  -10.7154   -5.4823    6.1072 H   0  0  0  0  0  0  0  0  0  0  0  0
   -9.3552   -6.3214    5.2873 H   0  0  0  0  0  0  0  0  0  0  0  0
   -9.4342   -4.5268    5.2873 H   0  0  0  0  0  0  0  0  0  0  0  0
  -10.3259   -3.2944    3.2121 H   0  0  0  0  0  0  0  0  0  0  0  0
  -12.8327   -4.5437    4.7959 H   0  0  0  0  0  0  0  0  0  0  0  0
  -13.6082   -6.0468    2.9964 H   0  0  0  0  0  0  0  0  0  0  0  0
  -10.6178   -4.6750    1.1725 H   0  0  0  0  0  0  0  0  0  0  0  0
  -11.2818   -3.0524    1.3995 H   0  0  0  0  0  0  0  0  0  0  0  0
  -11.5513   -4.3533   -0.7246 H   0  0  0  0  0  0  0  0  0  0  0  0
  -14.0117   -3.0121    0.3633 H   0  0  0  0  0  0  0  0  0  0  0  0
  -14.1587   -1.7267   -0.8829 H   0  0  0  0  0  0  0  0  0  0  0  0
  -15.3015   -3.1126   -0.8829 H   0  0  0  0  0  0  0  0  0  0  0  0
  -14.9803   -4.7704   -2.3559 H   0  0  0  0  0  0  0  0  0  0  0  0
  -14.5481   -3.3638   -3.3861 H   0  0  0  0  0  0  0  0  0  0  0  0
  -13.5100   -4.8298   -3.3861 H   0  0  0  0  0  0  0  0  0  0  0  0
  -11.7684   -2.0744   -1.4164 H   0  0  0  0  0  0  0  0  0  0  0  0
  -11.5811   -3.1490   -2.8436 H   0  0  0  0  0  0  0  0  0  0  0  0
  -12.8392   -1.8668   -2.8436 H   0  0  0  0  0  0  0  0  0  0  0  0
  -13.3969   -6.5809   -1.6970 H   0  0  0  0  0  0  0  0  0  0  0  0
  -13.3928   -2.4439    3.3787 H   0  0  0  0  0  0  0  0  0  0  0  0
  -16.2437   -2.1369    2.7286 H   0  0  0  0  0  0  0  0  0  0  0  0
  -16.7145   -2.9079    4.9022 H   0  0  0  0  0  0  0  0  0  0  0  0
  -15.2517   -2.0378    5.5851 H   0  0  0  0  0  0  0  0  0  0  0  0
  -16.3846    0.0320    4.8727 H   0  0  0  0  0  0  0  0  0  0  0  0
  -17.2327   -1.6085    7.2977 H   0  0  0  0  0  0  0  0  0  0  0  0
  -16.3900   -0.0704    7.2849 H   0  0  0  0  0  0  0  0  0  0  0  0
  -19.0654   -0.1800    7.7909 H   0  0  0  0  0  0  0  0  0  0  0  0
  -18.4535    1.1647    6.8497 H   0  0  0  0  0  0  0  0  0  0  0  0
  -20.2597   -0.4442    5.6277 H   0  0  0  0  0  0  0  0  0  0  0  0
  -10.5637   -7.6142    3.9223 H   0  0  0  0  0  0  0  0  0  0  0  0
  -11.5496   -6.9484    2.5765 H   0  0  0  0  0  0  0  0  0  0  0  0
   -9.7665   -6.7310    2.5765 H   0  0  0  0  0  0  0  0  0  0  0  0
  1  2  1  0
  2  3  1  0
  3  4  1  0
  4  5  1  0
  5  6  1  0
  6  7  1  0
  6  8  1  0
  8  9  2  0
  8 10  1  0
 10 11  1  0
 11 12  1  0
 11 13  1  0
 11 14  1  0
 10 15  1  0
 15 16  1  0
 16 17  2  0
 16 18  1  0
 18 19  1  0
 18 20  1  0
 18 21  1  0
  5 22  1  0
 22 23  2  0
 22 24  1  0
 24 25  1  0
 25 26  1  0
 26 27  1  0
 27 28  1  0
 28 29  1  0
 29 30  1  0
 30 31  1  0
 31 32  2  0
 25 33  1  0
 33 34  3  0
  2 35  1  0
  4  2  1  0
  7  3  1  0
 31 27  1  0
  1 36  1  0
  1 37  1  0
  1 38  1  0
  3 39  1  1
  4 40  1  1
  5 41  1  6
  7 42  1  0
  7 43  1  0
 10 44  1  1
 12 45  1  0
 12 46  1  0
 12 47  1  0
 13 48  1  0
 13 49  1  0
 13 50  1  0
 14 51  1  0
 14 52  1  0
 14 53  1  0
 15 54  1  0
 24 55  1  0
 25 56  1  6
 26 57  1  0
 26 58  1  0
 27 59  1  6
 28 60  1  0
 28 61  1  0
 29 62  1  0
 29 63  1  0
 30 64  1  0
 35 65  1  0
 35 66  1  0
 35 67  1  0
M  END
