
     RDKit          3D

 49 50  0  0  0  0  0  0  0  0999 V2000
   -7.6750    4.0400    1.7640 C   0  0  0  0  0  0  0  0  0  0  0  0
   -7.7340    3.7620    0.3930 C   0  0  0  0  0  0  0  0  0  0  0  0
   -8.9630    3.5230   -0.2230 C   0  0  0  0  0  0  0  0  0  0  0  0
  -10.1330    3.5680    0.5410 C   0  0  0  0  0  0  0  0  0  0  0  0
  -10.0820    3.8480    1.9080 C   0  0  0  0  0  0  0  0  0  0  0  0
   -8.8490    4.0790    2.5230 C   0  0  0  0  0  0  0  0  0  0  0  0
   -8.7980    4.3850    3.9780 C   0  0  0  0  0  0  0  0  0  0  0  0
   -9.6210    5.2050    4.5500 N   0  0  0  0  0  0  0  0  0  0  0  0
   -7.8660    3.7870    4.7720 N   0  0  0  0  0  0  0  0  0  0  0  0
   -9.1600    3.2410   -1.5460 O   0  0  0  0  0  0  0  0  0  0  0  0
   -9.5740    1.9170   -1.8780 C   0  0  0  0  0  0  0  0  0  0  0  0
  -10.4360    1.9720   -3.1410 C   0  0  0  0  0  0  0  0  0  0  0  0
  -11.6420    1.0280   -3.0600 C   0  0  0  0  0  0  0  0  0  0  0  0
  -12.5550    1.3140   -1.8680 C   0  0  0  0  0  0  0  0  0  0  0  0
  -13.1720    2.7110   -1.8830 C   0  0  0  0  0  0  0  0  0  0  0  0
  -12.7260    3.3950   -0.7110 O   0  0  0  0  0  0  0  0  0  0  0  0
  -13.6810    3.9710    0.0800 C   0  0  0  0  0  0  0  0  0  0  0  0
  -13.9080    3.3090    1.2910 C   0  0  0  0  0  0  0  0  0  0  0  0
  -14.8570    3.7890    2.1980 C   0  0  0  0  0  0  0  0  0  0  0  0
  -15.5900    4.9380    1.8930 C   0  0  0  0  0  0  0  0  0  0  0  0
  -15.3650    5.6060    0.6860 C   0  0  0  0  0  0  0  0  0  0  0  0
  -14.4110    5.1220   -0.2190 C   0  0  0  0  0  0  0  0  0  0  0  0
  -16.5910    5.4510    2.8660 C   0  0  0  0  0  0  0  0  0  0  0  0
  -16.8780    6.7080    2.9780 N   0  0  0  0  0  0  0  0  0  0  0  0
  -17.2450    4.5900    3.6950 N   0  0  0  0  0  0  0  0  0  0  0  0
   -6.7037    4.2280    2.2449 H   0  0  0  0  0  0  0  0  0  0  0  0
   -6.8083    3.7319   -0.2005 H   0  0  0  0  0  0  0  0  0  0  0  0
  -11.1044    3.3808    0.0599 H   0  0  0  0  0  0  0  0  0  0  0  0
  -11.0092    3.8866    2.4985 H   0  0  0  0  0  0  0  0  0  0  0  0
   -9.5478    5.3863    5.5613 H   0  0  0  0  0  0  0  0  0  0  0  0
   -7.8335    4.0012    5.7790 H   0  0  0  0  0  0  0  0  0  0  0  0
   -7.1940    3.1208    4.3652 H   0  0  0  0  0  0  0  0  0  0  0  0
   -8.6902    1.2882   -2.0607 H   0  0  0  0  0  0  0  0  0  0  0  0
  -10.1542    1.4876   -1.0479 H   0  0  0  0  0  0  0  0  0  0  0  0
  -10.8000    3.0011   -3.2771 H   0  0  0  0  0  0  0  0  0  0  0  0
   -9.8131    1.6526   -3.9895 H   0  0  0  0  0  0  0  0  0  0  0  0
  -12.2303    1.1332   -3.9835 H   0  0  0  0  0  0  0  0  0  0  0  0
  -11.2495    0.0084   -2.9323 H   0  0  0  0  0  0  0  0  0  0  0  0
  -13.3700    0.5753   -1.8708 H   0  0  0  0  0  0  0  0  0  0  0  0
  -11.9306    1.2501   -0.9647 H   0  0  0  0  0  0  0  0  0  0  0  0
  -12.8455    3.2552   -2.7815 H   0  0  0  0  0  0  0  0  0  0  0  0
  -14.2701    2.6472   -1.8976 H   0  0  0  0  0  0  0  0  0  0  0  0
  -13.3342    2.4020    1.5319 H   0  0  0  0  0  0  0  0  0  0  0  0
  -15.0260    3.2633    3.1493 H   0  0  0  0  0  0  0  0  0  0  0  0
  -15.9381    6.5137    0.4460 H   0  0  0  0  0  0  0  0  0  0  0  0
  -14.2371    5.6508   -1.1677 H   0  0  0  0  0  0  0  0  0  0  0  0
  -17.5788    7.0169    3.6668 H   0  0  0  0  0  0  0  0  0  0  0  0
  -17.9376    4.9488    4.3676 H   0  0  0  0  0  0  0  0  0  0  0  0
  -17.0468    3.5803    3.6491 H   0  0  0  0  0  0  0  0  0  0  0  0
  1  2  2  0
  2  3  1  0
  3  4  2  0
  4  5  1  0
  5  6  2  0
  6  7  1  0
  7  8  2  3
  7  9  1  0
  3 10  1  0
 10 11  1  0
 11 12  1  0
 12 13  1  0
 13 14  1  0
 14 15  1  0
 15 16  1  0
 16 17  1  0
 17 18  2  0
 18 19  1  0
 19 20  2  0
 20 21  1  0
 21 22  2  0
 20 23  1  0
 23 24  2  3
 23 25  1  0
  6  1  1  0
 22 17  1  0
  1 26  1  0
  2 27  1  0
  4 28  1  0
  5 29  1  0
  8 30  1  0
  9 31  1  0
  9 32  1  0
 11 33  1  0
 11 34  1  0
 12 35  1  0
 12 36  1  0
 13 37  1  0
 13 38  1  0
 14 39  1  0
 14 40  1  0
 15 41  1  0
 15 42  1  0
 18 43  1  0
 19 44  1  0
 21 45  1  0
 22 46  1  0
 24 47  1  0
 25 48  1  0
 25 49  1  0
M  END
