
     RDKit          3D

 82 84  0  0  0  0  0  0  0  0999 V2000
  -11.0060   -4.5600    3.4450 C   0  0  0  0  0  0  0  0  0  0  0  0
  -12.0310   -5.0060    4.4600 C   0  0  0  0  0  0  0  0  0  0  0  0
  -13.2890   -5.6770    3.9230 C   0  0  2  0  0  0  0  0  0  0  0  0
  -13.3710   -4.2780    4.4470 C   0  0  1  0  0  0  0  0  0  0  0  0
  -14.3770   -4.2660    5.5800 C   0  0  2  0  0  0  0  0  0  0  0  0
  -14.6560   -5.6850    5.8250 N   0  0  0  0  0  0  0  0  0  0  0  0
  -14.2080   -6.5370    4.7350 C   0  0  0  0  0  0  0  0  0  0  0  0
  -15.4000   -6.2210    6.8530 C   0  0  0  0  0  0  0  0  0  0  0  0
  -15.7280   -7.4150    6.8450 O   0  0  0  0  0  0  0  0  0  0  0  0
  -15.8360   -5.3140    8.0350 C   0  0  2  0  0  0  0  0  0  0  0  0
  -14.9300   -5.4480    9.3000 C   0  0  0  0  0  0  0  0  0  0  0  0
  -15.2190   -6.7240   10.1150 C   0  0  0  0  0  0  0  0  0  0  0  0
  -15.1680   -4.2280   10.2180 C   0  0  0  0  0  0  0  0  0  0  0  0
  -13.4430   -5.4530    8.9030 C   0  0  0  0  0  0  0  0  0  0  0  0
  -17.2210   -5.7000    8.3250 N   0  0  0  0  0  0  0  0  0  0  0  0
  -18.2630   -4.8660    8.0110 C   0  0  0  0  0  0  0  0  0  0  0  0
  -18.1250   -3.7020    7.6640 O   0  0  0  0  0  0  0  0  0  0  0  0
  -19.4620   -5.5140    8.1640 N   0  0  0  0  0  0  0  0  0  0  0  0
  -20.7720   -4.9030    7.9040 C   0  0  0  0  0  0  0  0  0  0  0  0
  -21.8560   -5.9260    8.2920 C   0  0  0  0  0  0  0  0  0  0  0  0
  -20.9710   -3.6350    8.7500 C   0  0  0  0  0  0  0  0  0  0  0  0
  -20.9380   -4.5770    6.4110 C   0  0  0  0  0  0  0  0  0  0  0  0
  -15.6640   -3.5320    5.1190 C   0  0  0  0  0  0  0  0  0  0  0  0
  -16.6310   -4.1020    4.6190 O   0  0  0  0  0  0  0  0  0  0  0  0
  -15.5990   -2.1600    5.2550 N   0  0  0  0  0  0  0  0  0  0  0  0
  -16.7200   -1.3050    4.8210 C   0  0  0  0  0  0  0  0  0  0  0  0
  -17.3130   -0.6410    6.0690 C   0  0  0  0  0  0  0  0  0  0  0  0
  -18.8080   -0.3380    6.0510 C   0  0  0  0  0  0  0  0  0  0  0  0
  -19.6890   -0.4360    7.3240 C   0  0  0  0  0  0  0  0  0  0  0  0
  -20.8680   -0.7830    6.3910 C   0  0  0  0  0  0  0  0  0  0  0  0
  -19.8270   -1.2840    5.3650 C   0  0  0  0  0  0  0  0  0  0  0  0
  -16.0870   -0.2980    3.8700 C   0  0  0  0  0  0  0  0  0  0  0  0
  -16.4210    0.8860    3.7940 O   0  0  0  0  0  0  0  0  0  0  0  0
  -14.9210   -0.7930    3.0070 C   0  0  0  0  0  0  0  0  0  0  0  0
  -15.0080   -1.7780    2.2960 O   0  0  0  0  0  0  0  0  0  0  0  0
  -13.7970   -0.0150    3.0810 N   0  0  0  0  0  0  0  0  0  0  0  0
  -11.4180   -5.4530    5.7590 C   0  0  0  0  0  0  0  0  0  0  0  0
  -10.1178   -4.1735    3.9663 H   0  0  0  0  0  0  0  0  0  0  0  0
  -10.7184   -5.4143    2.8146 H   0  0  0  0  0  0  0  0  0  0  0  0
  -11.4351   -3.7672    2.8146 H   0  0  0  0  0  0  0  0  0  0  0  0
  -13.4053   -6.2691    3.0032 H   0  0  0  0  0  0  0  0  0  0  0  0
  -13.5704   -3.2388    4.1466 H   0  0  0  0  0  0  0  0  0  0  0  0
  -14.0120   -3.7506    6.4807 H   0  0  0  0  0  0  0  0  0  0  0  0
  -13.6718   -7.4145    5.1255 H   0  0  0  0  0  0  0  0  0  0  0  0
  -15.0487   -6.9212    4.1386 H   0  0  0  0  0  0  0  0  0  0  0  0
  -15.7414   -4.2544    7.7553 H   0  0  0  0  0  0  0  0  0  0  0  0
  -15.1666   -6.4927   11.1891 H   0  0  0  0  0  0  0  0  0  0  0  0
  -16.2243   -7.0965    9.8687 H   0  0  0  0  0  0  0  0  0  0  0  0
  -14.4724   -7.4933    9.8687 H   0  0  0  0  0  0  0  0  0  0  0  0
  -15.1065   -4.5432   11.2701 H   0  0  0  0  0  0  0  0  0  0  0  0
  -14.4019   -3.4642   10.0187 H   0  0  0  0  0  0  0  0  0  0  0  0
  -16.1650   -3.8081   10.0187 H   0  0  0  0  0  0  0  0  0  0  0  0
  -12.8212   -5.4551    9.8104 H   0  0  0  0  0  0  0  0  0  0  0  0
  -13.2255   -6.3519    8.3074 H   0  0  0  0  0  0  0  0  0  0  0  0
  -13.2195   -4.5556    8.3074 H   0  0  0  0  0  0  0  0  0  0  0  0
  -17.4132   -6.6088    8.7700 H   0  0  0  0  0  0  0  0  0  0  0  0
  -19.4425   -6.4934    8.4821 H   0  0  0  0  0  0  0  0  0  0  0  0
  -21.9241   -5.9902    9.3880 H   0  0  0  0  0  0  0  0  0  0  0  0
  -22.8255   -5.6060    7.8825 H   0  0  0  0  0  0  0  0  0  0  0  0
  -21.5926   -6.9124    7.8825 H   0  0  0  0  0  0  0  0  0  0  0  0
  -20.9300   -3.8964    9.8177 H   0  0  0  0  0  0  0  0  0  0  0  0
  -20.1754   -2.9114    8.5188 H   0  0  0  0  0  0  0  0  0  0  0  0
  -21.9500   -3.1899    8.5188 H   0  0  0  0  0  0  0  0  0  0  0  0
  -21.4347   -3.6016    6.3017 H   0  0  0  0  0  0  0  0  0  0  0  0
  -19.9487   -4.5405    5.9315 H   0  0  0  0  0  0  0  0  0  0  0  0
  -21.5494   -5.3556    5.9315 H   0  0  0  0  0  0  0  0  0  0  0  0
  -14.7582   -1.7282    5.6642 H   0  0  0  0  0  0  0  0  0  0  0  0
  -17.5394   -1.8398    4.3184 H   0  0  0  0  0  0  0  0  0  0  0  0
  -17.1203   -1.3078    6.9224 H   0  0  0  0  0  0  0  0  0  0  0  0
  -16.8240    0.3426    6.1276 H   0  0  0  0  0  0  0  0  0  0  0  0
  -18.5345    0.6346    5.6160 H   0  0  0  0  0  0  0  0  0  0  0  0
  -19.4027   -1.2377    8.0207 H   0  0  0  0  0  0  0  0  0  0  0  0
  -19.7481    0.3848    8.0540 H   0  0  0  0  0  0  0  0  0  0  0  0
  -21.5430   -1.5615    6.7760 H   0  0  0  0  0  0  0  0  0  0  0  0
  -21.6301   -0.0367    6.1222 H   0  0  0  0  0  0  0  0  0  0  0  0
  -19.5844   -2.3542    5.4411 H   0  0  0  0  0  0  0  0  0  0  0  0
  -20.0150   -1.2485    4.2818 H   0  0  0  0  0  0  0  0  0  0  0  0
  -12.9598   -0.2665    2.5363 H   0  0  0  0  0  0  0  0  0  0  0  0
  -13.7885    0.8219    3.6814 H   0  0  0  0  0  0  0  0  0  0  0  0
  -11.9922   -5.0343    6.5987 H   0  0  0  0  0  0  0  0  0  0  0  0
  -11.4360   -6.5515    5.8141 H   0  0  0  0  0  0  0  0  0  0  0  0
  -10.3776   -5.1001    5.8141 H   0  0  0  0  0  0  0  0  0  0  0  0
  1  2  1  0
  2  3  1  0
  3  4  1  0
  4  5  1  0
  5  6  1  0
  6  7  1  0
  6  8  1  0
  8  9  2  0
  8 10  1  0
 10 11  1  0
 11 12  1  0
 11 13  1  0
 11 14  1  0
 10 15  1  0
 15 16  1  0
 16 17  2  0
 16 18  1  0
 18 19  1  0
 19 20  1  0
 19 21  1  0
 19 22  1  0
  5 23  1  0
 23 24  2  0
 23 25  1  0
 25 26  1  0
 26 27  1  0
 27 28  1  0
 28 29  1  0
 29 30  1  0
 30 31  1  0
 26 32  1  0
 32 33  2  0
 32 34  1  0
 34 35  2  0
 34 36  1  0
  2 37  1  0
  4  2  1  0
  7  3  1  0
 31 28  1  0
  1 38  1  0
  1 39  1  0
  1 40  1  0
  3 41  1  6
  4 42  1  6
  5 43  1  1
  7 44  1  0
  7 45  1  0
 10 46  1  6
 12 47  1  0
 12 48  1  0
 12 49  1  0
 13 50  1  0
 13 51  1  0
 13 52  1  0
 14 53  1  0
 14 54  1  0
 14 55  1  0
 15 56  1  0
 18 57  1  0
 20 58  1  0
 20 59  1  0
 20 60  1  0
 21 61  1  0
 21 62  1  0
 21 63  1  0
 22 64  1  0
 22 65  1  0
 22 66  1  0
 25 67  1  0
 26 68  1  0
 27 69  1  0
 27 70  1  0
 28 71  1  0
 29 72  1  0
 29 73  1  0
 30 74  1  0
 30 75  1  0
 31 76  1  0
 31 77  1  0
 36 78  1  0
 36 79  1  0
 37 80  1  0
 37 81  1  0
 37 82  1  0
M  END
