@<TRIPOS>MOLECULE
=
 40 42 0 0 0
SMALL
GASTEIGER

@<TRIPOS>ATOM
      1  C       -127.3660   68.2390   36.7600 C.2     0  UNK0        0.0000
      2  C       -126.7360   67.0200   37.0550 C.2     0  UNK0        0.0000
      3  C       -127.2930   65.7880   36.6820 C.2     0  UNK0        0.0000
      4  C       -128.5180   65.7460   36.0140 C.2     0  UNK0        0.0000
      5  C       -129.1650   66.9450   35.7120 C.2     0  UNK0        0.0000
      6  C       -128.5980   68.1680   36.0890 C.2     0  UNK0        0.0000
      7  C       -129.1580   64.4700   35.5890 C.2     0  UNK0        0.0000
      8  O       -130.2560   64.1510   36.0330 O.2     0  UNK0        0.0000
      9  N       -128.4500   63.6820   34.7130 N.am    1  GLU1        0.0000
     10  H       -127.4940   63.9110   34.4610 H       1  GLU1        0.0000
     11  CA      -128.9640   62.3900   34.2450 C.3     1  GLU1        0.0000
     12  C       -128.3100   61.3250   35.1220 C.2     1  GLU1        0.0000
     13  O       -127.2230   61.4160   35.6740 O.2     1  GLU1        0.0000
     14  OXT     -129.0630   60.2190   35.2650 O.3     1  GLU1        0.0000
     15  HXT     -129.9650   60.5530   35.4610 H       1  GLU1        0.0000
     16  CB      -128.6540   62.2050   32.7550 C.3     1  GLU1        0.0000
     17  CG      -127.3180   61.5120   32.4730 C.3     1  GLU1        0.0000
     18  CD      -126.1320   62.4220   32.2920 C.2     1  GLU1        0.0000
     19  OE1     -125.6540   62.7600   31.2200 O.2     1  GLU1        0.0000
     20  OE2     -125.6500   62.9360   33.4360 O.3     1  GLU1        0.0000
     21  HE2     -125.1890   62.1800   33.8590 H       1  GLU1        0.0000
     22  C       -127.6820   70.4590   37.7820 C.3     0  UNK0        0.0000
     23  N       -126.8270   69.4770   37.1140 N.pl3   0  UNK0        0.0000
     24  C       -125.4050   69.5080   37.5180 C.3     0  UNK0        0.0000
     25  C       -124.5070   70.1460   36.4780 C.2     0  UNK0        0.0000
     26  C       -124.1920   71.4910   36.5330 C.3     0  UNK0        0.0000
     27  N       -123.4030   72.1000   35.6150 N.2     0  UNK0        0.0000
     28  C       -122.9170   71.3610   34.6120 C.2     0  UNK0        0.0000
     29  N       -122.1530   71.9760   33.7140 N.2     0  UNK0        0.0000
     30  C       -121.6760   71.2530   32.7100 C.cat   0  UNK0        0.0000
     31  N       -120.8790   71.8920   31.7860 N.pl3   0  UNK0        0.0000
     32  N       -121.8780   69.9490   32.5480 N.2     0  UNK0        0.0000
     33  C       -122.6560   69.3480   33.4610 C.2     0  UNK0        0.0000
     34  N       -122.8080   67.9600   33.2950 N.pl3   0  UNK0        0.0000
     35  C       -123.2280   69.9980   34.5500 C.3     0  UNK0        0.0000
     36  N       -124.0320   69.3770   35.4690 N.2     0  UNK0        0.0000
     37  H       -120.4770   72.7280   32.1890 H       0  UNK0        0.0000
     38  H       -120.2470   71.2370   31.3480 H       0  UNK0        0.0000
     39  H       -123.7670   67.6700   33.4610 H       0  UNK0        0.0000
     40  H       -122.4340   67.6890   32.3920 H       0  UNK0        0.0000
@<TRIPOS>BOND
     1    19    18    2
     2    38    31    1
     3    31    37    1
     4    31    30    1
     5    18    17    1
     6    18    20    1
     7    40    34    1
     8    17    16    1
     9    32    30    1
    10    32    33    2
    11    30    29    2
    12    16    11    1
    13    34    39    1
    14    34    33    1
    15    20    21    1
    16    33    35    1
    17    29    28    1
    18    11     9    1
    19    11    12    1
    20    10     9    1
    21    35    28    1
    22    35    36    1
    23    28    27    2
    24     9     7   am
    25    12    14    1
    26    12    13    2
    27    14    15    1
    28    36    25    2
    29     7     4    1
    30     7     8    2
    31    27    26    1
    32     5     4    2
    33     5     6    1
    34     4     3    1
    35     6     1    2
    36    25    26    1
    37    25    24    1
    38     3     2    2
    39     1     2    1
    40     1    23    1
    41    23    24    1
    42    23    22    1
