@<TRIPOS>MOLECULE
=
 28 30 0 0 0
SMALL
GASTEIGER

@<TRIPOS>ATOM
      1  C       -125.1280   51.6470   40.5180 C.2     1  UNL1        0.0000
      2  C       -124.0430   51.2900   41.2970 C.2     1  UNL1        0.0000
      3  C       -123.1110   50.6880   40.4260 C.2     1  UNL1        0.0000
      4  N       -123.5880   50.6600   39.1720 N.2     1  UNL1        0.0000
      5  N       -124.8540   51.1660   39.2370 N.pl3   1  UNL1        0.0000
      6  C       -129.6810   54.7890   42.1710 C.3     1  UNL1        0.0000
      7  C       -128.5080   53.9740   41.7160 C.2     1  UNL1        0.0000
      8  C       -128.5840   52.5770   41.6880 C.2     1  UNL1        0.0000
      9  C       -127.4820   51.8140   41.2930 C.2     1  UNL1        0.0000
     10  C       -126.2790   52.4390   40.9430 C.2     1  UNL1        0.0000
     11  C       -126.2020   53.8360   40.9680 C.2     1  UNL1        0.0000
     12  C       -127.3060   54.5970   41.3620 C.2     1  UNL1        0.0000
     13  C       -125.6690   51.1140   38.0610 C.2     1  UNL1        0.0000
     14  C       -126.2860   52.2990   37.6120 C.2     1  UNL1        0.0000
     15  C       -127.0900   52.2990   36.4680 C.2     1  UNL1        0.0000
     16  C       -127.2650   51.1160   35.7520 C.2     1  UNL1        0.0000
     17  C       -126.6550   49.9340   36.1760 C.2     1  UNL1        0.0000
     18  C       -125.8510   49.9370   37.3230 C.2     1  UNL1        0.0000
     19  S       -128.3050   51.1040   34.3220 S.O2    1  UNL1        0.0000
     20  O       -129.4520   51.9490   34.5600 O.2     1  UNL1        0.0000
     21  O       -127.4880   51.2240   33.1380 O.2     1  UNL1        0.0000
     22  N       -128.8860   49.5300   34.3280 N.3     1  UNL1        0.0000
     23  H       -129.7690   49.4830   33.8190 H       1  UNL1        0.0000
     24  H       -128.1710   48.8950   33.9710 H       1  UNL1        0.0000
     25  C       -121.7480   50.1640   40.7910 C.3     1  UNL1        0.0000
     26  F       -121.6810   48.8080   40.6700 F       1  UNL1        0.0000
     27  F       -120.7680   50.6650   39.9940 F       1  UNL1        0.0000
     28  F       -121.4060   50.4500   42.0740 F       1  UNL1        0.0000
@<TRIPOS>BOND
     1    21    19    2
     2    23    22    1
     3    24    22    1
     4    19    22    1
     5    19    20    2
     6    19    16    1
     7    16    17    2
     8    16    15    1
     9    17    18    1
    10    15    14    2
    11    18    13    2
    12    14    13    1
    13    13     5    1
    14     4     5    1
    15     4     3    2
    16     5     1    1
    17    27    25    1
    18     3    25    1
    19     3     2    1
    20     1    10    1
    21     1     2    2
    22    26    25    1
    23    25    28    1
    24    10    11    2
    25    10     9    1
    26    11    12    1
    27     9     8    2
    28    12     7    2
    29     8     7    1
    30     7     6    1
